Program Version,EnergyPlus, Version 9.4.0-998c4b761e, YMD=2021.03.24 06:33,
   ** Warning ** Timestep: Requested number (1) is less than the suggested minimum of 4.
   **   ~~~   ** Please see entry for Timestep in Input/Output Reference for discussion of considerations.
   ************* Beginning Zone Sizing Calculations
   ** Warning ** ProcessScheduleInput: Schedule:Day:Interval="33 SPACE(S) OCC SCH DEFAULT", Blank Schedule Type Limits Name input -- will not be validated.
   ** Warning ** ProcessScheduleInput: Schedule:Day:Interval="33 SPACE(S) OCC SCH FRIDAY", Blank Schedule Type Limits Name input -- will not be validated.
   ** Warning ** ProcessScheduleInput: Schedule:Day:Interval="33 SPACE(S) OCC SCH SATURDAY", Blank Schedule Type Limits Name input -- will not be validated.
   ** Warning ** ProcessScheduleInput: Schedule:Day:Interval="33 SPACE(S) OCC SCH SUMMER DESIGN DAY", Blank Schedule Type Limits Name input -- will not be validated.
   ** Warning ** ProcessScheduleInput: Schedule:Day:Interval="33 SPACE(S) OCC SCH SUNDAY", Blank Schedule Type Limits Name input -- will not be validated.
   ** Warning ** ProcessScheduleInput: Schedule:Day:Interval="33 SPACE(S) OCC SCH WINTER DESIGN DAY", Blank Schedule Type Limits Name input -- will not be validated.
   ** Warning ** ProcessScheduleInput: Schedule:Day:Interval="ECONOMIZER MAX OA FRACTION 70 PCT DEFAULT", Blank Schedule Type Limits Name input -- will not be validated.
   ** Warning ** ProcessScheduleInput: Schedule:Day:Interval="SCHEDULE DAY 1", Blank Schedule Type Limits Name input -- will not be validated.
   ** Warning ** ProcessScheduleInput: Schedule:Day:Interval="SCHEDULE DAY 2", Blank Schedule Type Limits Name input -- will not be validated.
   ** Warning ** ProcessScheduleInput: Schedule:Day:Interval="SCHEDULE DAY 3", Blank Schedule Type Limits Name input -- will not be validated.
   ** Warning ** ProcessScheduleInput: Schedule:Day:Interval="SCHEDULE DAY 4", Blank Schedule Type Limits Name input -- will not be validated.
   ** Warning ** ProcessScheduleInput: Schedule:Day:Interval="SCHEDULE DAY 5", Blank Schedule Type Limits Name input -- will not be validated.
   ** Warning ** ProcessScheduleInput: Schedule:Day:Interval="SCHEDULE DAY 6", Blank Schedule Type Limits Name input -- will not be validated.
   ** Warning ** ProcessScheduleInput: Schedule:Year="ECONOMIZER MAX OA FRACTION 70 PCT", Blank Schedule Type Limits Name input -- will not be validated.
   ** Warning ** ProcessScheduleInput: Schedule:Year="ELEVATOR SCHEDULE", Blank Schedule Type Limits Name input -- will not be validated.
   ** Warning ** ProcessScheduleInput: Schedule:Constant="ALWAYS OFF DISCRETE", Blank Schedule Type Limits Name input -- will not be validated.
   ** Warning ** ProcessScheduleInput: Schedule:Constant="ALWAYS ON CONTINUOUS", Blank Schedule Type Limits Name input -- will not be validated.
   ** Warning ** GetHTSurfaceData: Surfaces with interface to Ground found but no "Ground Temperatures" were input.
   **   ~~~   ** Found first in surface=SURFACE 1
   **   ~~~   ** Defaults, constant throughout the year of (18.0) will be used.
   ** Warning ** CheckUsedConstructions: There are 10 nominally unused constructions in input.
   **   ~~~   ** For explicit details on each unused construction, use Output:Diagnostics,DisplayExtraWarnings;
   ** Warning ** Seems like you already tried to get a Handle on this Actuator 1times.
   **   ~~~   ** Occurred for componentType='SCHEDULE:YEAR', controlType='SCHEDULE VALUE', uniqueKey='RETAILSTRIPMALL TYPE3_CLGSETP_SCH_NO_OPTIMUM'.
   **   ~~~   ** You should take note that there is a risk of overwritting.
   ** Warning ** Seems like you already tried to get a Handle on this Actuator 1times.
   **   ~~~   ** Occurred for componentType='SCHEDULE:YEAR', controlType='SCHEDULE VALUE', uniqueKey='RETAILSTRIPMALL TYPE3_HTGSETP_SCH_NO_OPTIMUM'.
   **   ~~~   ** You should take note that there is a risk of overwritting.
   ** Warning ** GetSimpleAirModelInputs: ZoneInfiltration:DesignFlowRate="BUILDING STORY 1 THERMALZONE STRIPMALL STRIP MALL - TYPE 1 A  - STORY GROUND INFILTRATION", Design Flow Rate Calculation Method specifies Flow per Exterior Surface Area, but Exterior Surface Area = 0.  0 Infiltration will result.
   ** Warning ** GetSimpleAirModelInputs: ZoneInfiltration:DesignFlowRate="BUILDING STORY 1 THERMALZONE STRIPMALL STRIP MALL - TYPE 1 A END_A - STORY GROUND INFILTRATION", Design Flow Rate Calculation Method specifies Flow per Exterior Surface Area, but Exterior Surface Area = 0.  0 Infiltration will result.
   ** Warning ** GetSimpleAirModelInputs: ZoneInfiltration:DesignFlowRate="BUILDING STORY 1 THERMALZONE STRIPMALL STRIP MALL - TYPE 1 B END_A - STORY GROUND INFILTRATION", Design Flow Rate Calculation Method specifies Flow per Exterior Surface Area, but Exterior Surface Area = 0.  0 Infiltration will result.
   ** Warning ** GetSimpleAirModelInputs: ZoneInfiltration:DesignFlowRate="BUILDING STORY 1 THERMALZONE STRIPMALL STRIP MALL - TYPE 1 C  - STORY GROUND INFILTRATION", Design Flow Rate Calculation Method specifies Flow per Exterior Surface Area, but Exterior Surface Area = 0.  0 Infiltration will result.
   ** Warning ** GetSimpleAirModelInputs: ZoneInfiltration:DesignFlowRate="BUILDING STORY 1 THERMALZONE STRIPMALL STRIP MALL - TYPE 1 C END_A - STORY GROUND INFILTRATION", Design Flow Rate Calculation Method specifies Flow per Exterior Surface Area, but Exterior Surface Area = 0.  0 Infiltration will result.
   ** Warning ** GetSimpleAirModelInputs: ZoneInfiltration:DesignFlowRate="BUILDING STORY 1 THERMALZONE STRIPMALL STRIP MALL - TYPE 2 A  - STORY GROUND INFILTRATION", Design Flow Rate Calculation Method specifies Flow per Exterior Surface Area, but Exterior Surface Area = 0.  0 Infiltration will result.
   ** Warning ** GetSimpleAirModelInputs: ZoneInfiltration:DesignFlowRate="BUILDING STORY 1 THERMALZONE STRIPMALL STRIP MALL - TYPE 2 A END_B - STORY GROUND INFILTRATION", Design Flow Rate Calculation Method specifies Flow per Exterior Surface Area, but Exterior Surface Area = 0.  0 Infiltration will result.
   ** Warning ** GetSimpleAirModelInputs: ZoneInfiltration:DesignFlowRate="BUILDING STORY 1 THERMALZONE STRIPMALL STRIP MALL - TYPE 2 B END_B - STORY GROUND INFILTRATION", Design Flow Rate Calculation Method specifies Flow per Exterior Surface Area, but Exterior Surface Area = 0.  0 Infiltration will result.
   ** Warning ** GetSimpleAirModelInputs: ZoneInfiltration:DesignFlowRate="BUILDING STORY 1 THERMALZONE STRIPMALL STRIP MALL - TYPE 2 C  - STORY GROUND INFILTRATION", Design Flow Rate Calculation Method specifies Flow per Exterior Surface Area, but Exterior Surface Area = 0.  0 Infiltration will result.
   ** Warning ** GetSimpleAirModelInputs: ZoneInfiltration:DesignFlowRate="BUILDING STORY 1 THERMALZONE STRIPMALL STRIP MALL - TYPE 2 C END_B - STORY GROUND INFILTRATION", Design Flow Rate Calculation Method specifies Flow per Exterior Surface Area, but Exterior Surface Area = 0.  0 Infiltration will result.
   ** Warning ** GetSimpleAirModelInputs: ZoneInfiltration:DesignFlowRate="BUILDING STORY 2 THERMALZONE STRIPMALL STRIP MALL - TYPE 2 A  - STORY MID INFILTRATION", Design Flow Rate Calculation Method specifies Flow per Exterior Surface Area, but Exterior Surface Area = 0.  0 Infiltration will result.
   ** Warning ** GetSimpleAirModelInputs: ZoneInfiltration:DesignFlowRate="BUILDING STORY 2 THERMALZONE STRIPMALL STRIP MALL - TYPE 2 A END_B - STORY MID INFILTRATION", Design Flow Rate Calculation Method specifies Flow per Exterior Surface Area, but Exterior Surface Area = 0.  0 Infiltration will result.
   ** Warning ** GetSimpleAirModelInputs: ZoneInfiltration:DesignFlowRate="BUILDING STORY 2 THERMALZONE STRIPMALL STRIP MALL - TYPE 2 B END_B - STORY MID INFILTRATION", Design Flow Rate Calculation Method specifies Flow per Exterior Surface Area, but Exterior Surface Area = 0.  0 Infiltration will result.
   ** Warning ** GetSimpleAirModelInputs: ZoneInfiltration:DesignFlowRate="BUILDING STORY 2 THERMALZONE STRIPMALL STRIP MALL - TYPE 2 C  - STORY MID INFILTRATION", Design Flow Rate Calculation Method specifies Flow per Exterior Surface Area, but Exterior Surface Area = 0.  0 Infiltration will result.
   ** Warning ** GetSimpleAirModelInputs: ZoneInfiltration:DesignFlowRate="BUILDING STORY 2 THERMALZONE STRIPMALL STRIP MALL - TYPE 2 C END_B - STORY MID INFILTRATION", Design Flow Rate Calculation Method specifies Flow per Exterior Surface Area, but Exterior Surface Area = 0.  0 Infiltration will result.
   ** Warning ** GetSimpleAirModelInputs: ZoneInfiltration:DesignFlowRate="BUILDING STORY 2 THERMALZONE STRIPMALL STRIP MALL - TYPE 3 A  - STORY MID INFILTRATION", Design Flow Rate Calculation Method specifies Flow per Exterior Surface Area, but Exterior Surface Area = 0.  0 Infiltration will result.
   ** Warning ** GetSimpleAirModelInputs: ZoneInfiltration:DesignFlowRate="BUILDING STORY 2 THERMALZONE STRIPMALL STRIP MALL - TYPE 3 A END_A - STORY MID INFILTRATION", Design Flow Rate Calculation Method specifies Flow per Exterior Surface Area, but Exterior Surface Area = 0.  0 Infiltration will result.
   ** Warning ** GetSimpleAirModelInputs: ZoneInfiltration:DesignFlowRate="BUILDING STORY 2 THERMALZONE STRIPMALL STRIP MALL - TYPE 3 B END_A - STORY MID INFILTRATION", Design Flow Rate Calculation Method specifies Flow per Exterior Surface Area, but Exterior Surface Area = 0.  0 Infiltration will result.
   ** Warning ** GetSimpleAirModelInputs: ZoneInfiltration:DesignFlowRate="BUILDING STORY 2 THERMALZONE STRIPMALL STRIP MALL - TYPE 3 C  - STORY MID INFILTRATION", Design Flow Rate Calculation Method specifies Flow per Exterior Surface Area, but Exterior Surface Area = 0.  0 Infiltration will result.
   ** Warning ** GetSimpleAirModelInputs: ZoneInfiltration:DesignFlowRate="BUILDING STORY 2 THERMALZONE STRIPMALL STRIP MALL - TYPE 3 C END_A - STORY MID INFILTRATION", Design Flow Rate Calculation Method specifies Flow per Exterior Surface Area, but Exterior Surface Area = 0.  0 Infiltration will result.
   ** Warning ** GetElectricEIRChillerInput: Chiller:Electric:EIR="90.1-2013 WATERCOOLED  ROTARY SCREW CHILLER 0 961TONS 0.6KW/TON"
   **   ~~~   ** Energy input ratio as a function of temperature curve output is not equal to 1.0 (+ or - 10%) at reference conditions.
   **   ~~~   ** Curve output at reference conditions = 1.205
   ** Warning ** Calculated design heating load for zone=BUILDING STORY 2 THERMALZONE is zero.
   **   ~~~   ** Check Sizing:Zone and ZoneControl:Thermostat inputs.
   ************* Beginning System Sizing Calculations
   ** Warning ** Since Zone Minimum Air Flow Input Method = CONSTANT, input for Fixed Minimum Air Flow Rate will be ignored.
   **   ~~~   ** Occurs in AirTerminal:SingleDuct:VAV:Reheat = BUILDING STORY 1 THERMALZONE VAV TERMINAL
   ** Warning ** Since Zone Minimum Air Flow Input Method = CONSTANT, input for Fixed Minimum Air Flow Rate will be ignored.
   **   ~~~   ** Occurs in AirTerminal:SingleDuct:VAV:Reheat = BUILDING STORY 1 THERMALZONE 1 VAV TERMINAL
   ** Warning ** Since Zone Minimum Air Flow Input Method = CONSTANT, input for Fixed Minimum Air Flow Rate will be ignored.
   **   ~~~   ** Occurs in AirTerminal:SingleDuct:VAV:Reheat = BUILDING STORY 1 THERMALZONE 2 VAV TERMINAL
   ** Warning ** Since Zone Minimum Air Flow Input Method = CONSTANT, input for Fixed Minimum Air Flow Rate will be ignored.
   **   ~~~   ** Occurs in AirTerminal:SingleDuct:VAV:Reheat = BUILDING STORY 1 THERMALZONE 3 VAV TERMINAL
   ** Warning ** Since Zone Minimum Air Flow Input Method = CONSTANT, input for Fixed Minimum Air Flow Rate will be ignored.
   **   ~~~   ** Occurs in AirTerminal:SingleDuct:VAV:Reheat = BUILDING STORY 1 THERMALZONE 4 VAV TERMINAL
   ** Warning ** Since Zone Minimum Air Flow Input Method = CONSTANT, input for Fixed Minimum Air Flow Rate will be ignored.
   **   ~~~   ** Occurs in AirTerminal:SingleDuct:VAV:Reheat = BUILDING STORY 2 THERMALZONE VAV TERMINAL
   ** Warning ** Since Zone Minimum Air Flow Input Method = CONSTANT, input for Fixed Minimum Air Flow Rate will be ignored.
   **   ~~~   ** Occurs in AirTerminal:SingleDuct:VAV:Reheat = BUILDING STORY 2 THERMALZONE 1 VAV TERMINAL
   ** Warning ** Since Zone Minimum Air Flow Input Method = CONSTANT, input for Fixed Minimum Air Flow Rate will be ignored.
   **   ~~~   ** Occurs in AirTerminal:SingleDuct:VAV:Reheat = BUILDING STORY 2 THERMALZONE 2 VAV TERMINAL
   ** Warning ** Since Zone Minimum Air Flow Input Method = CONSTANT, input for Fixed Minimum Air Flow Rate will be ignored.
   **   ~~~   ** Occurs in AirTerminal:SingleDuct:VAV:Reheat = BUILDING STORY 2 THERMALZONE 3 VAV TERMINAL
   ** Warning ** Since Zone Minimum Air Flow Input Method = CONSTANT, input for Fixed Minimum Air Flow Rate will be ignored.
   **   ~~~   ** Occurs in AirTerminal:SingleDuct:VAV:Reheat = BUILDING STORY 2 THERMALZONE 4 VAV TERMINAL
   ** Warning ** Since Zone Minimum Air Flow Input Method = CONSTANT, input for Fixed Minimum Air Flow Rate will be ignored.
   **   ~~~   ** Occurs in AirTerminal:SingleDuct:VAV:Reheat = BUILDING STORY 3 THERMALZONE VAV TERMINAL
   ** Warning ** Since Zone Minimum Air Flow Input Method = CONSTANT, input for Fixed Minimum Air Flow Rate will be ignored.
   **   ~~~   ** Occurs in AirTerminal:SingleDuct:VAV:Reheat = BUILDING STORY 3 THERMALZONE 1 VAV TERMINAL
   ** Warning ** Since Zone Minimum Air Flow Input Method = CONSTANT, input for Fixed Minimum Air Flow Rate will be ignored.
   **   ~~~   ** Occurs in AirTerminal:SingleDuct:VAV:Reheat = BUILDING STORY 3 THERMALZONE 2 VAV TERMINAL
   ** Warning ** Since Zone Minimum Air Flow Input Method = CONSTANT, input for Fixed Minimum Air Flow Rate will be ignored.
   **   ~~~   ** Occurs in AirTerminal:SingleDuct:VAV:Reheat = BUILDING STORY 3 THERMALZONE 3 VAV TERMINAL
   ** Warning ** Since Zone Minimum Air Flow Input Method = CONSTANT, input for Fixed Minimum Air Flow Rate will be ignored.
   **   ~~~   ** Occurs in AirTerminal:SingleDuct:VAV:Reheat = BUILDING STORY 3 THERMALZONE 4 VAV TERMINAL
   ************* Beginning Plant Sizing Calculations
   ** Warning ** GetOAControllerInputs: Controller:MechanicalVentilation="5 ZONE VAV VENT CONTROLLER
   **   ~~~   ** Cannot locate a matching DesignSpecification:ZoneAirDistribution object for Zone="BUILDING STORY 1 THERMALZONE".
   **   ~~~   ** Using default zone air distribution effectiveness of 1.0 for heating and cooling.
   ** Warning ** GetOAControllerInputs: Controller:MechanicalVentilation="5 ZONE VAV VENT CONTROLLER
   **   ~~~   ** Cannot locate a matching DesignSpecification:ZoneAirDistribution object for Zone="BUILDING STORY 1 THERMALZONE 1".
   **   ~~~   ** Using default zone air distribution effectiveness of 1.0 for heating and cooling.
   ** Warning ** GetOAControllerInputs: Controller:MechanicalVentilation="5 ZONE VAV VENT CONTROLLER
   **   ~~~   ** Cannot locate a matching DesignSpecification:ZoneAirDistribution object for Zone="BUILDING STORY 1 THERMALZONE 2".
   **   ~~~   ** Using default zone air distribution effectiveness of 1.0 for heating and cooling.
   ** Warning ** GetOAControllerInputs: Controller:MechanicalVentilation="5 ZONE VAV VENT CONTROLLER
   **   ~~~   ** Cannot locate a matching DesignSpecification:ZoneAirDistribution object for Zone="BUILDING STORY 1 THERMALZONE 3".
   **   ~~~   ** Using default zone air distribution effectiveness of 1.0 for heating and cooling.
   ** Warning ** GetOAControllerInputs: Controller:MechanicalVentilation="5 ZONE VAV VENT CONTROLLER
   **   ~~~   ** Cannot locate a matching DesignSpecification:ZoneAirDistribution object for Zone="BUILDING STORY 1 THERMALZONE 4".
   **   ~~~   ** Using default zone air distribution effectiveness of 1.0 for heating and cooling.
   ** Warning ** GetOAControllerInputs: Controller:MechanicalVentilation="5 ZONE VAV 1 VENT CONTROLLER
   **   ~~~   ** Cannot locate a matching DesignSpecification:ZoneAirDistribution object for Zone="BUILDING STORY 2 THERMALZONE".
   **   ~~~   ** Using default zone air distribution effectiveness of 1.0 for heating and cooling.
   ** Warning ** GetOAControllerInputs: Controller:MechanicalVentilation="5 ZONE VAV 1 VENT CONTROLLER
   **   ~~~   ** Cannot locate a matching DesignSpecification:ZoneAirDistribution object for Zone="BUILDING STORY 2 THERMALZONE 1".
   **   ~~~   ** Using default zone air distribution effectiveness of 1.0 for heating and cooling.
   ** Warning ** GetOAControllerInputs: Controller:MechanicalVentilation="5 ZONE VAV 1 VENT CONTROLLER
   **   ~~~   ** Cannot locate a matching DesignSpecification:ZoneAirDistribution object for Zone="BUILDING STORY 2 THERMALZONE 2".
   **   ~~~   ** Using default zone air distribution effectiveness of 1.0 for heating and cooling.
   ** Warning ** GetOAControllerInputs: Controller:MechanicalVentilation="5 ZONE VAV 1 VENT CONTROLLER
   **   ~~~   ** Cannot locate a matching DesignSpecification:ZoneAirDistribution object for Zone="BUILDING STORY 2 THERMALZONE 3".
   **   ~~~   ** Using default zone air distribution effectiveness of 1.0 for heating and cooling.
   ** Warning ** GetOAControllerInputs: Controller:MechanicalVentilation="5 ZONE VAV 1 VENT CONTROLLER
   **   ~~~   ** Cannot locate a matching DesignSpecification:ZoneAirDistribution object for Zone="BUILDING STORY 2 THERMALZONE 4".
   **   ~~~   ** Using default zone air distribution effectiveness of 1.0 for heating and cooling.
   ** Warning ** GetOAControllerInputs: Controller:MechanicalVentilation="5 ZONE VAV 2 VENT CONTROLLER
   **   ~~~   ** Cannot locate a matching DesignSpecification:ZoneAirDistribution object for Zone="BUILDING STORY 3 THERMALZONE".
   **   ~~~   ** Using default zone air distribution effectiveness of 1.0 for heating and cooling.
   ** Warning ** GetOAControllerInputs: Controller:MechanicalVentilation="5 ZONE VAV 2 VENT CONTROLLER
   **   ~~~   ** Cannot locate a matching DesignSpecification:ZoneAirDistribution object for Zone="BUILDING STORY 3 THERMALZONE 1".
   **   ~~~   ** Using default zone air distribution effectiveness of 1.0 for heating and cooling.
   ** Warning ** GetOAControllerInputs: Controller:MechanicalVentilation="5 ZONE VAV 2 VENT CONTROLLER
   **   ~~~   ** Cannot locate a matching DesignSpecification:ZoneAirDistribution object for Zone="BUILDING STORY 3 THERMALZONE 2".
   **   ~~~   ** Using default zone air distribution effectiveness of 1.0 for heating and cooling.
   ** Warning ** GetOAControllerInputs: Controller:MechanicalVentilation="5 ZONE VAV 2 VENT CONTROLLER
   **   ~~~   ** Cannot locate a matching DesignSpecification:ZoneAirDistribution object for Zone="BUILDING STORY 3 THERMALZONE 3".
   **   ~~~   ** Using default zone air distribution effectiveness of 1.0 for heating and cooling.
   ** Warning ** GetOAControllerInputs: Controller:MechanicalVentilation="5 ZONE VAV 2 VENT CONTROLLER
   **   ~~~   ** Cannot locate a matching DesignSpecification:ZoneAirDistribution object for Zone="BUILDING STORY 3 THERMALZONE 4".
   **   ~~~   ** Using default zone air distribution effectiveness of 1.0 for heating and cooling.
   ** Warning ** In calculating the design coil UA for Coil:Cooling:Water 5 ZONE VAV CLG COIL
   **   ~~~   ** the coil bypass factor is unrealistically large;
   **   ~~~   ** The initial design conditions are: Tair,in = 30.3000
   **   ~~~   **                                    Wair,in = 1.336696E-002
   **   ~~~   **                                    Twater,in = 6.6667
   **   ~~~   **                                    Tair,out = 10.9235
   **   ~~~   **                                    Wair,out = 8.500000E-003
   ** Warning ** In calculating the design coil UA for Coil:Cooling:Water 5 ZONE VAV 1 CLG COIL
   **   ~~~   ** the coil bypass factor is unrealistically large;
   **   ~~~   ** The initial design conditions are: Tair,in = 25.1671
   **   ~~~   **                                    Wair,in = 1.150476E-002
   **   ~~~   **                                    Twater,in = 6.6667
   **   ~~~   **                                    Tair,out = 10.9327
   **   ~~~   **                                    Wair,out = 8.500000E-003
   ** Warning ** In calculating the design coil UA for Coil:Cooling:Water 5 ZONE VAV 2 CLG COIL
   **   ~~~   ** the coil bypass factor is unrealistically large;
   **   ~~~   ** The initial design conditions are: Tair,in = 25.1783
   **   ~~~   **                                    Wair,in = 1.150282E-002
   **   ~~~   **                                    Twater,in = 6.6667
   **   ~~~   **                                    Tair,out = 10.9327
   **   ~~~   **                                    Wair,out = 8.500000E-003
   ** Warning ** Water heater = 42X 50GAL NATURALGAS WATER HEATER - 20KBTU/HR 0.82 THERM EFF:  Recovery Efficiency and Energy Factor could not be calculated during the test for standard ratings
   **   ~~~   ** Setpoint was never recovered and/or heater never turned on
   ** Warning ** Water heater = 42X 50GAL NATURALGAS WATER HEATER - 20KBTU/HR 1 0.82 THERM EFF:  Recovery Efficiency and Energy Factor could not be calculated during the test for standard ratings
   **   ~~~   ** Setpoint was never recovered and/or heater never turned on
   ** Warning ** Water heater = 83X 50GAL NATURALGAS WATER HEATER - 20KBTU/HR 0.82 THERM EFF:  Recovery Efficiency and Energy Factor could not be calculated during the test for standard ratings
   **   ~~~   ** Setpoint was never recovered and/or heater never turned on
   ** Warning ** Meter:Custom="HEATREJECTION:OTHERFUELS", invalid Output Variable or Meter Name="HEATREJECTION:FUELOIL#1".
   **   ~~~   ** ...will not be shown with the Meter results.
   ** Warning ** Meter:Custom="HEATREJECTION:OTHERFUELS", invalid Output Variable or Meter Name="HEATREJECTION:DIESEL".
   **   ~~~   ** ...will not be shown with the Meter results.
   ** Warning ** Meter:Custom="HEATREJECTION:OTHERFUELS", invalid Output Variable or Meter Name="HEATREJECTION:GASOLINE".
   **   ~~~   ** ...will not be shown with the Meter results.
   ** Warning ** Meter:Custom="HEATREJECTION:OTHERFUELS", invalid Output Variable or Meter Name="HEATREJECTION:COAL".
   **   ~~~   ** ...will not be shown with the Meter results.
   ** Warning ** Meter:Custom="HEATREJECTION:OTHERFUELS", invalid Output Variable or Meter Name="HEATREJECTION:STEAM".
   **   ~~~   ** ...will not be shown with the Meter results.
   ** Warning ** Meter:Custom="HEATREJECTION:OTHERFUELS", no items assigned 
   **   ~~~   ** ...will not be shown with the Meter results. This may be caused by a Meter:Custom be assigned to another Meter:Custom.
   ** Warning ** Meter:Custom="HEATING:OTHERFUELS", invalid Output Variable or Meter Name="HEATING:FUELOIL#1".
   **   ~~~   ** ...will not be shown with the Meter results.
   ** Warning ** Meter:Custom="HEATING:OTHERFUELS", invalid Output Variable or Meter Name="HEATING:DIESEL".
   **   ~~~   ** ...will not be shown with the Meter results.
   ** Warning ** Meter:Custom="HEATING:OTHERFUELS", invalid Output Variable or Meter Name="HEATING:GASOLINE".
   **   ~~~   ** ...will not be shown with the Meter results.
   ** Warning ** Meter:Custom="HEATING:OTHERFUELS", invalid Output Variable or Meter Name="HEATING:COAL".
   **   ~~~   ** ...will not be shown with the Meter results.
   ** Warning ** Meter:Custom="HEATING:OTHERFUELS", invalid Output Variable or Meter Name="HEATING:STEAM".
   **   ~~~   ** ...will not be shown with the Meter results.
   ** Warning ** Meter:Custom="HEATING:OTHERFUELS", no items assigned 
   **   ~~~   ** ...will not be shown with the Meter results. This may be caused by a Meter:Custom be assigned to another Meter:Custom.
   ** Warning ** Meter:Custom="WATERSYSTEMS:OTHERFUELS", invalid Output Variable or Meter Name="WATERSYSTEMS:FUELOIL#1".
   **   ~~~   ** ...will not be shown with the Meter results.
   ** Warning ** Meter:Custom="WATERSYSTEMS:OTHERFUELS", invalid Output Variable or Meter Name="WATERSYSTEMS:DIESEL".
   **   ~~~   ** ...will not be shown with the Meter results.
   ** Warning ** Meter:Custom="WATERSYSTEMS:OTHERFUELS", invalid Output Variable or Meter Name="WATERSYSTEMS:GASOLINE".
   **   ~~~   ** ...will not be shown with the Meter results.
   ** Warning ** Meter:Custom="WATERSYSTEMS:OTHERFUELS", invalid Output Variable or Meter Name="WATERSYSTEMS:COAL".
   **   ~~~   ** ...will not be shown with the Meter results.
   ** Warning ** Meter:Custom="WATERSYSTEMS:OTHERFUELS", invalid Output Variable or Meter Name="WATERSYSTEMS:STEAM".
   **   ~~~   ** ...will not be shown with the Meter results.
   ** Warning ** Meter:Custom="WATERSYSTEMS:OTHERFUELS", no items assigned 
   **   ~~~   ** ...will not be shown with the Meter results. This may be caused by a Meter:Custom be assigned to another Meter:Custom.
   ** Warning ** Meter:Custom="INTERIOREQUIPMENT:OTHERFUELS", invalid Output Variable or Meter Name="INTERIOREQUIPMENT:FUELOIL#1".
   **   ~~~   ** ...will not be shown with the Meter results.
   ** Warning ** Meter:Custom="INTERIOREQUIPMENT:OTHERFUELS", invalid Output Variable or Meter Name="INTERIOREQUIPMENT:DIESEL".
   **   ~~~   ** ...will not be shown with the Meter results.
   ** Warning ** Meter:Custom="INTERIOREQUIPMENT:OTHERFUELS", invalid Output Variable or Meter Name="INTERIOREQUIPMENT:GASOLINE".
   **   ~~~   ** ...will not be shown with the Meter results.
   ** Warning ** Meter:Custom="INTERIOREQUIPMENT:OTHERFUELS", invalid Output Variable or Meter Name="INTERIOREQUIPMENT:COAL".
   **   ~~~   ** ...will not be shown with the Meter results.
   ** Warning ** Meter:Custom="INTERIOREQUIPMENT:OTHERFUELS", invalid Output Variable or Meter Name="INTERIOREQUIPMENT:STEAM".
   **   ~~~   ** ...will not be shown with the Meter results.
   ** Warning ** Meter:Custom="INTERIOREQUIPMENT:OTHERFUELS", no items assigned 
   **   ~~~   ** ...will not be shown with the Meter results. This may be caused by a Meter:Custom be assigned to another Meter:Custom.
   ** Warning ** Meter:Custom="OTHERFUELS:FACILITY", invalid Output Variable or Meter Name="HEATREJECTION:FUELOIL#1".
   **   ~~~   ** ...will not be shown with the Meter results.
   ** Warning ** Meter:Custom="OTHERFUELS:FACILITY", invalid Output Variable or Meter Name="HEATREJECTION:DIESEL".
   **   ~~~   ** ...will not be shown with the Meter results.
   ** Warning ** Meter:Custom="OTHERFUELS:FACILITY", invalid Output Variable or Meter Name="HEATREJECTION:GASOLINE".
   **   ~~~   ** ...will not be shown with the Meter results.
   ** Warning ** Meter:Custom="OTHERFUELS:FACILITY", invalid Output Variable or Meter Name="HEATREJECTION:COAL".
   **   ~~~   ** ...will not be shown with the Meter results.
   ** Warning ** Meter:Custom="OTHERFUELS:FACILITY", invalid Output Variable or Meter Name="HEATREJECTION:STEAM".
   **   ~~~   ** ...will not be shown with the Meter results.
   ** Warning ** Meter:Custom="OTHERFUELS:FACILITY", invalid Output Variable or Meter Name="HEATING:FUELOIL#1".
   **   ~~~   ** ...will not be shown with the Meter results.
   ** Warning ** Meter:Custom="OTHERFUELS:FACILITY", invalid Output Variable or Meter Name="HEATING:DIESEL".
   **   ~~~   ** ...will not be shown with the Meter results.
   ** Warning ** Meter:Custom="OTHERFUELS:FACILITY", invalid Output Variable or Meter Name="HEATING:GASOLINE".
   **   ~~~   ** ...will not be shown with the Meter results.
   ** Warning ** Meter:Custom="OTHERFUELS:FACILITY", invalid Output Variable or Meter Name="HEATING:COAL".
   **   ~~~   ** ...will not be shown with the Meter results.
   ** Warning ** Meter:Custom="OTHERFUELS:FACILITY", invalid Output Variable or Meter Name="HEATING:STEAM".
   **   ~~~   ** ...will not be shown with the Meter results.
   ** Warning ** Meter:Custom="OTHERFUELS:FACILITY", invalid Output Variable or Meter Name="WATERSYSTEMS:FUELOIL#1".
   **   ~~~   ** ...will not be shown with the Meter results.
   ** Warning ** Meter:Custom="OTHERFUELS:FACILITY", invalid Output Variable or Meter Name="WATERSYSTEMS:DIESEL".
   **   ~~~   ** ...will not be shown with the Meter results.
   ** Warning ** Meter:Custom="OTHERFUELS:FACILITY", invalid Output Variable or Meter Name="WATERSYSTEMS:GASOLINE".
   **   ~~~   ** ...will not be shown with the Meter results.
   ** Warning ** Meter:Custom="OTHERFUELS:FACILITY", invalid Output Variable or Meter Name="WATERSYSTEMS:COAL".
   **   ~~~   ** ...will not be shown with the Meter results.
   ** Warning ** Meter:Custom="OTHERFUELS:FACILITY", invalid Output Variable or Meter Name="WATERSYSTEMS:STEAM".
   **   ~~~   ** ...will not be shown with the Meter results.
   ** Warning ** Meter:Custom="OTHERFUELS:FACILITY", invalid Output Variable or Meter Name="INTERIOREQUIPMENT:FUELOIL#1".
   **   ~~~   ** ...will not be shown with the Meter results.
   ** Warning ** Meter:Custom="OTHERFUELS:FACILITY", invalid Output Variable or Meter Name="INTERIOREQUIPMENT:DIESEL".
   **   ~~~   ** ...will not be shown with the Meter results.
   ** Warning ** Meter:Custom="OTHERFUELS:FACILITY", invalid Output Variable or Meter Name="INTERIOREQUIPMENT:GASOLINE".
   **   ~~~   ** ...will not be shown with the Meter results.
   ** Warning ** Meter:Custom="OTHERFUELS:FACILITY", invalid Output Variable or Meter Name="INTERIOREQUIPMENT:COAL".
   **   ~~~   ** ...will not be shown with the Meter results.
   ** Warning ** Meter:Custom="OTHERFUELS:FACILITY", invalid Output Variable or Meter Name="INTERIOREQUIPMENT:STEAM".
   **   ~~~   ** ...will not be shown with the Meter results.
   ** Warning ** Meter:Custom="OTHERFUELS:FACILITY", no items assigned 
   **   ~~~   ** ...will not be shown with the Meter results. This may be caused by a Meter:Custom be assigned to another Meter:Custom.
   ** Warning ** Output:Meter: invalid Key Name="HEATING:FUELOILNO2" - not found.
   ** Warning ** Output:Meter: invalid Key Name="HEATING:PROPANE" - not found.
   ** Warning ** Output:Meter: invalid Key Name="HEATING:DISTRICTCOOLING" - not found.
   ** Warning ** Output:Meter: invalid Key Name="HEATING:DISTRICTHEATING" - not found.
   ** Warning ** Output:Meter: invalid Key Name="HEATING:WATER" - not found.
   ** Warning ** Output:Meter: invalid Key Name="COOLING:NATURALGAS" - not found.
   ** Warning ** Output:Meter: invalid Key Name="COOLING:FUELOILNO2" - not found.
   ** Warning ** Output:Meter: invalid Key Name="COOLING:PROPANE" - not found.
   ** Warning ** Output:Meter: invalid Key Name="COOLING:DISTRICTCOOLING" - not found.
   ** Warning ** Output:Meter: invalid Key Name="COOLING:DISTRICTHEATING" - not found.
   ** Warning ** Output:Meter: invalid Key Name="COOLING:WATER" - not found.
   ** Warning ** Output:Meter: invalid Key Name="INTERIORLIGHTS:NATURALGAS" - not found.
   ** Warning ** Output:Meter: invalid Key Name="INTERIORLIGHTS:FUELOILNO2" - not found.
   ** Warning ** Output:Meter: invalid Key Name="INTERIORLIGHTS:PROPANE" - not found.
   ** Warning ** Output:Meter: invalid Key Name="INTERIORLIGHTS:DISTRICTCOOLING" - not found.
   ** Warning ** Output:Meter: invalid Key Name="INTERIORLIGHTS:DISTRICTHEATING" - not found.
   ** Warning ** Output:Meter: invalid Key Name="INTERIORLIGHTS:WATER" - not found.
   ** Warning ** Output:Meter: invalid Key Name="EXTERIORLIGHTS:NATURALGAS" - not found.
   ** Warning ** Output:Meter: invalid Key Name="EXTERIORLIGHTS:FUELOILNO2" - not found.
   ** Warning ** Output:Meter: invalid Key Name="EXTERIORLIGHTS:PROPANE" - not found.
   ** Warning ** Output:Meter: invalid Key Name="EXTERIORLIGHTS:DISTRICTCOOLING" - not found.
   ** Warning ** Output:Meter: invalid Key Name="EXTERIORLIGHTS:DISTRICTHEATING" - not found.
   ** Warning ** Output:Meter: invalid Key Name="EXTERIORLIGHTS:WATER" - not found.
   ** Warning ** Output:Meter: invalid Key Name="INTERIOREQUIPMENT:NATURALGAS" - not found.
   ** Warning ** Output:Meter: invalid Key Name="INTERIOREQUIPMENT:FUELOILNO2" - not found.
   ** Warning ** Output:Meter: invalid Key Name="INTERIOREQUIPMENT:PROPANE" - not found.
   ** Warning ** Output:Meter: invalid Key Name="INTERIOREQUIPMENT:DISTRICTCOOLING" - not found.
   ** Warning ** Output:Meter: invalid Key Name="INTERIOREQUIPMENT:DISTRICTHEATING" - not found.
   ** Warning ** Output:Meter: invalid Key Name="INTERIOREQUIPMENT:WATER" - not found.
   ** Warning ** Output:Meter: invalid Key Name="EXTERIOREQUIPMENT:ELECTRICITY" - not found.
   ** Warning ** Output:Meter: invalid Key Name="EXTERIOREQUIPMENT:NATURALGAS" - not found.
   ** Warning ** Output:Meter: invalid Key Name="EXTERIOREQUIPMENT:FUELOILNO2" - not found.
   ** Warning ** Output:Meter: invalid Key Name="EXTERIOREQUIPMENT:PROPANE" - not found.
   ** Warning ** Output:Meter: invalid Key Name="EXTERIOREQUIPMENT:DISTRICTCOOLING" - not found.
   ** Warning ** Output:Meter: invalid Key Name="EXTERIOREQUIPMENT:DISTRICTHEATING" - not found.
   ** Warning ** Output:Meter: invalid Key Name="EXTERIOREQUIPMENT:WATER" - not found.
   ** Warning ** Output:Meter: invalid Key Name="FANS:NATURALGAS" - not found.
   ** Warning ** Output:Meter: invalid Key Name="FANS:FUELOILNO2" - not found.
   ** Warning ** Output:Meter: invalid Key Name="FANS:PROPANE" - not found.
   ** Warning ** Output:Meter: invalid Key Name="FANS:DISTRICTCOOLING" - not found.
   ** Warning ** Output:Meter: invalid Key Name="FANS:DISTRICTHEATING" - not found.
   ** Warning ** Output:Meter: invalid Key Name="FANS:WATER" - not found.
   ** Warning ** Output:Meter: invalid Key Name="PUMPS:NATURALGAS" - not found.
   ** Warning ** Output:Meter: invalid Key Name="PUMPS:FUELOILNO2" - not found.
   ** Warning ** Output:Meter: invalid Key Name="PUMPS:PROPANE" - not found.
   ** Warning ** Output:Meter: invalid Key Name="PUMPS:DISTRICTCOOLING" - not found.
   ** Warning ** Output:Meter: invalid Key Name="PUMPS:DISTRICTHEATING" - not found.
   ** Warning ** Output:Meter: invalid Key Name="PUMPS:WATER" - not found.
   ** Warning ** Output:Meter: invalid Key Name="HEATREJECTION:NATURALGAS" - not found.
   ** Warning ** Output:Meter: invalid Key Name="HEATREJECTION:FUELOILNO2" - not found.
   ** Warning ** Output:Meter: invalid Key Name="HEATREJECTION:PROPANE" - not found.
   ** Warning ** Output:Meter: invalid Key Name="HEATREJECTION:DISTRICTCOOLING" - not found.
   ** Warning ** Output:Meter: invalid Key Name="HEATREJECTION:DISTRICTHEATING" - not found.
   ** Warning ** Output:Meter: invalid Key Name="HUMIDIFIER:ELECTRICITY" - not found.
   ** Warning ** Output:Meter: invalid Key Name="HUMIDIFIER:NATURALGAS" - not found.
   ** Warning ** Output:Meter: invalid Key Name="HUMIDIFIER:FUELOILNO2" - not found.
   ** Warning ** Output:Meter: invalid Key Name="HUMIDIFIER:PROPANE" - not found.
   ** Warning ** Output:Meter: invalid Key Name="HUMIDIFIER:DISTRICTCOOLING" - not found.
   ** Warning ** Output:Meter: invalid Key Name="HUMIDIFIER:DISTRICTHEATING" - not found.
   ** Warning ** Output:Meter: invalid Key Name="HUMIDIFIER:WATER" - not found.
   ** Warning ** Output:Meter: invalid Key Name="HEATRECOVERY:NATURALGAS" - not found.
   ** Warning ** Output:Meter: invalid Key Name="HEATRECOVERY:FUELOILNO2" - not found.
   ** Warning ** Output:Meter: invalid Key Name="HEATRECOVERY:PROPANE" - not found.
   ** Warning ** Output:Meter: invalid Key Name="HEATRECOVERY:DISTRICTCOOLING" - not found.
   ** Warning ** Output:Meter: invalid Key Name="HEATRECOVERY:DISTRICTHEATING" - not found.
   ** Warning ** Output:Meter: invalid Key Name="HEATRECOVERY:WATER" - not found.
   ** Warning ** Output:Meter: invalid Key Name="WATERSYSTEMS:ELECTRICITY" - not found.
   ** Warning ** Output:Meter: invalid Key Name="WATERSYSTEMS:FUELOILNO2" - not found.
   ** Warning ** Output:Meter: invalid Key Name="WATERSYSTEMS:PROPANE" - not found.
   ** Warning ** Output:Meter: invalid Key Name="WATERSYSTEMS:DISTRICTCOOLING" - not found.
   ** Warning ** Output:Meter: invalid Key Name="WATERSYSTEMS:DISTRICTHEATING" - not found.
   ** Warning ** Output:Meter: invalid Key Name="REFRIGERATION:ELECTRICITY" - not found.
   ** Warning ** Output:Meter: invalid Key Name="REFRIGERATION:NATURALGAS" - not found.
   ** Warning ** Output:Meter: invalid Key Name="REFRIGERATION:FUELOILNO2" - not found.
   ** Warning ** Output:Meter: invalid Key Name="REFRIGERATION:PROPANE" - not found.
   ** Warning ** Output:Meter: invalid Key Name="REFRIGERATION:DISTRICTCOOLING" - not found.
   ** Warning ** Output:Meter: invalid Key Name="REFRIGERATION:DISTRICTHEATING" - not found.
   ** Warning ** Output:Meter: invalid Key Name="REFRIGERATION:WATER" - not found.
   ** Warning ** Output:Meter: invalid Key Name="GENERATORS:ELECTRICITY" - not found.
   ** Warning ** Output:Meter: invalid Key Name="GENERATORS:NATURALGAS" - not found.
   ** Warning ** Output:Meter: invalid Key Name="GENERATORS:FUELOILNO2" - not found.
   ** Warning ** Output:Meter: invalid Key Name="GENERATORS:PROPANE" - not found.
   ** Warning ** Output:Meter: invalid Key Name="GENERATORS:DISTRICTCOOLING" - not found.
   ** Warning ** Output:Meter: invalid Key Name="GENERATORS:DISTRICTHEATING" - not found.
   ** Warning ** Output:Meter: invalid Key Name="GENERATORS:WATER" - not found.
   ** Warning ** Output:Meter: invalid Key Name="FUELOILNO2:FACILITY" - not found.
   ** Warning ** Output:Meter: invalid Key Name="PROPANE:FACILITY" - not found.
   ** Warning ** Output:Meter: invalid Key Name="DISTRICTCOOLING:FACILITY" - not found.
   ** Warning ** Output:Meter: invalid Key Name="DISTRICTHEATING:FACILITY" - not found.
   ** Warning ** Output:Meter: invalid Key Name="HEATREJECTION:FUELOIL#1" - not found.
   ** Warning ** Output:Meter: invalid Key Name="HEATREJECTION:DIESEL" - not found.
   ** Warning ** Output:Meter: invalid Key Name="HEATREJECTION:GASOLINE" - not found.
   ** Warning ** Output:Meter: invalid Key Name="HEATREJECTION:COAL" - not found.
   ** Warning ** Output:Meter: invalid Key Name="HEATREJECTION:STEAM" - not found.
   ** Warning ** Output:Meter: invalid Key Name="HEATREJECTION:OTHERFUELS" - not found.
   ** Warning ** Output:Meter: invalid Key Name="HEATING:FUELOIL#1" - not found.
   ** Warning ** Output:Meter: invalid Key Name="HEATING:DIESEL" - not found.
   ** Warning ** Output:Meter: invalid Key Name="HEATING:GASOLINE" - not found.
   ** Warning ** Output:Meter: invalid Key Name="HEATING:COAL" - not found.
   ** Warning ** Output:Meter: invalid Key Name="HEATING:STEAM" - not found.
   ** Warning ** Output:Meter: invalid Key Name="HEATING:OTHERFUELS" - not found.
   ** Warning ** Output:Meter: invalid Key Name="WATERSYSTEMS:FUELOIL#1" - not found.
   ** Warning ** Output:Meter: invalid Key Name="WATERSYSTEMS:DIESEL" - not found.
   ** Warning ** Output:Meter: invalid Key Name="WATERSYSTEMS:GASOLINE" - not found.
   ** Warning ** Output:Meter: invalid Key Name="WATERSYSTEMS:COAL" - not found.
   ** Warning ** Output:Meter: invalid Key Name="WATERSYSTEMS:STEAM" - not found.
   ** Warning ** Output:Meter: invalid Key Name="WATERSYSTEMS:OTHERFUELS" - not found.
   ** Warning ** Output:Meter: invalid Key Name="INTERIOREQUIPMENT:FUELOIL#1" - not found.
   ** Warning ** Output:Meter: invalid Key Name="INTERIOREQUIPMENT:DIESEL" - not found.
   ** Warning ** Output:Meter: invalid Key Name="INTERIOREQUIPMENT:GASOLINE" - not found.
   ** Warning ** Output:Meter: invalid Key Name="INTERIOREQUIPMENT:COAL" - not found.
   ** Warning ** Output:Meter: invalid Key Name="INTERIOREQUIPMENT:STEAM" - not found.
   ** Warning ** Output:Meter: invalid Key Name="INTERIOREQUIPMENT:OTHERFUELS" - not found.
   ** Warning ** Output:Meter: invalid Key Name="OTHERFUELS:FACILITY" - not found.
   ** Warning ** Output:Meter:MeterFileOnly requested for "Electricity:Facility" (TimeStep), already on "Output:Meter". Will report to both eplusout.eso and eplusout.mtr
   ** Warning ** Output:Meter:MeterFileOnly: invalid Key Name="ELECTRICITYPRODUCED:FACILITY" - not found.
   ** Warning ** Output:Meter:MeterFileOnly: invalid Key Name="GAS:FACILITY" - not found.
   ** Warning ** Output:Meter:MeterFileOnly: invalid Key Name="DISTRICTCOOLING:FACILITY" - not found.
   ** Warning ** Output:Meter:MeterFileOnly: invalid Key Name="DISTRICTHEATING:FACILITY" - not found.
   ************* Testing Individual Branch Integrity
   ************* All Branches passed integrity testing
   ************* Testing Individual Supply Air Path Integrity
   ************* All Supply Air Paths passed integrity testing
   ************* Testing Individual Return Air Path Integrity
   ************* All Return Air Paths passed integrity testing
   ************* No node connection errors were found.
   ** Warning ** CalcOAController: Minimum OA fraction > Mechanical Ventilation Controller request for Controller:OutdoorAir=5 ZONE VAV OA CONTROLLER, Min OA fraction is used.
   **   ~~~   ** This may be overriding desired ventilation controls. Check inputs for Minimum Outdoor Air Flow Rate, Minimum Outdoor Air Schedule Name and Controller:MechanicalVentilation
   **   ~~~   ** Minimum OA fraction = 0.8215, Mech Vent OA fraction = 0.4929
   **   ~~~   **  Environment=BUFFALO NIAGARA INTL AP ANN CLG .4% CONDNS DB=>MWB 1 HVAC Sizing Pass 1, at Simulation time=07/21 00:00 - 01:00
   ** Warning ** CalcOAController: Minimum OA fraction > Mechanical Ventilation Controller request for Controller:OutdoorAir=5 ZONE VAV 1 OA CONTROLLER, Min OA fraction is used.
   **   ~~~   ** This may be overriding desired ventilation controls. Check inputs for Minimum Outdoor Air Flow Rate, Minimum Outdoor Air Schedule Name and Controller:MechanicalVentilation
   **   ~~~   ** Minimum OA fraction = 0.3441, Mech Vent OA fraction = 0.2064
   **   ~~~   **  Environment=BUFFALO NIAGARA INTL AP ANN CLG .4% CONDNS DB=>MWB 1 HVAC Sizing Pass 1, at Simulation time=07/21 00:00 - 01:00
   ** Warning ** CalcOAController: Minimum OA fraction > Mechanical Ventilation Controller request for Controller:OutdoorAir=5 ZONE VAV 2 OA CONTROLLER, Min OA fraction is used.
   **   ~~~   ** This may be overriding desired ventilation controls. Check inputs for Minimum Outdoor Air Flow Rate, Minimum Outdoor Air Schedule Name and Controller:MechanicalVentilation
   **   ~~~   ** Minimum OA fraction = 0.3482, Mech Vent OA fraction = 0.2089
   **   ~~~   **  Environment=BUFFALO NIAGARA INTL AP ANN CLG .4% CONDNS DB=>MWB 1 HVAC Sizing Pass 1, at Simulation time=07/21 00:00 - 01:00
   ** Warning ** CoolingTower:VariableSpeed "PROPELLER OR AXIAL VARIABLE SPEED FAN OPEN COOLING TOWER 40.2 GPM/HP" - Water flow rate ratio is outside model boundaries at 1.25.
   **   ~~~   **  ...Valid range = 0.75 to 1.25. Occurrence info = BUFFALO NIAGARA INTL AP ANN CLG .4% CONDNS DB=>MWB 1 HVAC Sizing Pass 1, 07/21 10:00 - 10:30
   **   ~~~   **  ...Water flow rate ratio passed to the model = 1.25000
   **   ~~~   **  ...Water flow rate ratios outside model boundaries may not adversely affect tower performance.
   ** Warning ** CoolingTower:VariableSpeed "PROPELLER OR AXIAL VARIABLE SPEED FAN OPEN COOLING TOWER 40.2 GPM/HP" - Water flow rate ratio is outside model boundaries at 1.25.
   **   ~~~   **  ...Valid range = 0.75 to 1.25. Occurrence info = BUFFALO NIAGARA INTL AP ANN CLG .4% CONDNS DB=>MWB 1 HVAC Sizing Pass 1, 07/21 10:30 - 11:00
   **   ~~~   **  ...Water flow rate ratio passed to the model = 1.25000
   **   ~~~   **  ...Water flow rate ratios outside model boundaries may not adversely affect tower performance.
   ** Warning ** CoolingTower:VariableSpeed "PROPELLER OR AXIAL VARIABLE SPEED FAN OPEN COOLING TOWER 40.2 GPM/HP" - Water flow rate ratio is outside model boundaries at 1.25.
   **   ~~~   **  ...Valid range = 0.75 to 1.25. Occurrence info = BUFFALO NIAGARA INTL AP ANN CLG .4% CONDNS DB=>MWB 1 HVAC Sizing Pass 1, 07/21 11:00 - 11:30
   **   ~~~   **  ...Water flow rate ratio passed to the model = 1.25000
   **   ~~~   **  ...Water flow rate ratios outside model boundaries may not adversely affect tower performance.
   ** Warning ** CoolingTower:VariableSpeed "PROPELLER OR AXIAL VARIABLE SPEED FAN OPEN COOLING TOWER 40.2 GPM/HP" - Water flow rate ratio is outside model boundaries at 1.25.
   **   ~~~   **  ...Valid range = 0.75 to 1.25. Occurrence info = BUFFALO NIAGARA INTL AP ANN CLG .4% CONDNS DB=>MWB 1 HVAC Sizing Pass 1, 07/21 11:30 - 12:00
   **   ~~~   **  ...Water flow rate ratio passed to the model = 1.25000
   **   ~~~   **  ...Water flow rate ratios outside model boundaries may not adversely affect tower performance.
   ** Warning ** CoolingTower:VariableSpeed "PROPELLER OR AXIAL VARIABLE SPEED FAN OPEN COOLING TOWER 40.2 GPM/HP" - Water flow rate ratio is outside model boundaries at 1.25.
   **   ~~~   **  ...Valid range = 0.75 to 1.25. Occurrence info = BUFFALO NIAGARA INTL AP ANN CLG .4% CONDNS DB=>MWB 1 HVAC Sizing Pass 1, 07/21 12:00 - 13:00
   **   ~~~   **  ...Water flow rate ratio passed to the model = 1.25000
   **   ~~~   **  ...Water flow rate ratios outside model boundaries may not adversely affect tower performance.
   ** Warning ** More than 4% of time (1.0 hours) uncomfortable in one or more zones 
   **   ~~~   ** Based on ASHRAE 55-2004 graph (Section 5.2.1.1)
   **   ~~~   ** During SizingPeriod Environment [01/21 - 01/21]: BUFFALO NIAGARA INTL AP ANN HTG 99.6% CONDNS DB 1 HVAC Sizing Pass 1
   **   ~~~   ** 7.0 hours were uncomfortable in zone: BUILDING STORY 2 THERMALZONE 2
   **   ~~~   ** 2.0 hours were uncomfortable in zone: BUILDING STORY 3 THERMALZONE
   ************* Beginning Simulation
   ** Warning ** CoolingTower:VariableSpeed "PROPELLER OR AXIAL VARIABLE SPEED FAN OPEN COOLING TOWER 40.2 GPM/HP" - Tower range temperature is outside model boundaries at 8.84E-003.
   **   ~~~   **  ...Valid range = 1.11 to 11.11. Occurrence info = RUN PERIOD 1, 01/05 07:00 - 08:00
   **   ~~~   **  ...Tower range temperature passed to the model = 8.84325E-003
   **   ~~~   **  ...Range temperatures outside model boundaries may not adversely affect tower performance.
   **   ~~~   **  ...This is not an unexpected occurrence when simulating actual conditions.
   ** Warning ** CoolingTower:VariableSpeed "PROPELLER OR AXIAL VARIABLE SPEED FAN OPEN COOLING TOWER 40.2 GPM/HP" - Inlet air wet-bulb temperature is outside model boundaries at -8.47.
   **   ~~~   **  ...Valid range = -1.00 to 26.67. Occurrence info = RUN PERIOD 1, 01/05 07:00 - 08:00
   **   ~~~   **  ...Inlet air wet-bulb temperature passed to the model = -1.000000
   **   ~~~   **  ...Wet-bulb temperatures outside model boundaries may not adversely affect tower performance.
   ** Warning ** CoolingTower:VariableSpeed "PROPELLER OR AXIAL VARIABLE SPEED FAN OPEN COOLING TOWER 40.2 GPM/HP" - Tower approach temperature is outside model boundaries at 29.58.
   **   ~~~   **  ...Valid range = 1.11 to 11.11. Occurrence info = RUN PERIOD 1, 01/05 07:00 - 08:00
   **   ~~~   **  ...Tower approach temperature passed to the model = 29.57778
   **   ~~~   **  ...Approach temperatures outside model boundaries may not adversely affect tower performance.
   **   ~~~   **  ...This is not an unexpected occurrence when simulating actual conditions.
   ** Warning ** CoolingTower:VariableSpeed "PROPELLER OR AXIAL VARIABLE SPEED FAN OPEN COOLING TOWER 40.2 GPM/HP" - Inlet air wet-bulb temperature is outside model boundaries at -12.37.
   **   ~~~   **  ...Valid range = -1.00 to 26.67. Occurrence info = RUN PERIOD 1, 01/06 04:00 - 04:15
   **   ~~~   **  ...Inlet air wet-bulb temperature passed to the model = -1.000000
   **   ~~~   **  ...Wet-bulb temperatures outside model boundaries may not adversely affect tower performance.
   ** Warning ** CoolingTower:VariableSpeed "PROPELLER OR AXIAL VARIABLE SPEED FAN OPEN COOLING TOWER 40.2 GPM/HP" - Inlet air wet-bulb temperature is outside model boundaries at -13.82.
   **   ~~~   **  ...Valid range = -1.00 to 26.67. Occurrence info = RUN PERIOD 1, 01/06 07:45 - 08:00
   **   ~~~   **  ...Inlet air wet-bulb temperature passed to the model = -1.000000
   **   ~~~   **  ...Wet-bulb temperatures outside model boundaries may not adversely affect tower performance.
   ** Warning ** CoolingTower:VariableSpeed "PROPELLER OR AXIAL VARIABLE SPEED FAN OPEN COOLING TOWER 40.2 GPM/HP" - Inlet air wet-bulb temperature is outside model boundaries at -11.64.
   **   ~~~   **  ...Valid range = -1.00 to 26.67. Occurrence info = RUN PERIOD 1, 01/06 08:00 - 09:00
   **   ~~~   **  ...Inlet air wet-bulb temperature passed to the model = -1.000000
   **   ~~~   **  ...Wet-bulb temperatures outside model boundaries may not adversely affect tower performance.
   ** Warning ** CoolingTower:VariableSpeed "PROPELLER OR AXIAL VARIABLE SPEED FAN OPEN COOLING TOWER 40.2 GPM/HP" - Inlet air wet-bulb temperature is outside model boundaries at -2.35.
   **   ~~~   **  ...Valid range = -1.00 to 26.67. Occurrence info = RUN PERIOD 1, 01/07 10:00 - 11:00
   **   ~~~   **  ...Inlet air wet-bulb temperature passed to the model = -1.000000
   **   ~~~   **  ...Wet-bulb temperatures outside model boundaries may not adversely affect tower performance.
   ** Warning ** CoolingTower:VariableSpeed "PROPELLER OR AXIAL VARIABLE SPEED FAN OPEN COOLING TOWER 40.2 GPM/HP" - Cooling tower air flow rate ratio calculation failed 
   **   ~~~   ** ...with conditions as Twb = -1.00, Trange =  4.42, Tapproach = 28.57, and water flow rate ratio =  1.25
   **   ~~~   ** ...a solution could not be found within the valid range of air flow rate ratios
   **   ~~~   **  ...Valid air flow rate ratio range =  0.20 to 1.0.
   **   ~~~   **  Environment=RUN PERIOD 1, at Simulation time=01/08 03:00 - 04:00
   **   ~~~   ** ...Consider modifying the design approach or design range temperature for this tower.
   ** Warning ** SimHVAC: Maximum iterations (20) exceeded for all HVAC loops, at RUN PERIOD 1, 04/19 18:00 - 18:20
   **   ~~~   ** The solution for one or more of the Air Loop HVAC systems did not appear to converge
   **   ~~~   ** ...use Output:Diagnostics,DisplayExtraWarnings; to show more details on each max iteration exceeded.
   ** Warning ** SimHVAC: Maximum iterations (20) exceeded for all HVAC loops, at RUN PERIOD 1, 04/21 15:15 - 15:30
   **   ~~~   ** The solution for one or more of the Air Loop HVAC systems did not appear to converge
   ** Warning ** SimHVAC: Maximum iterations (20) exceeded for all HVAC loops, at RUN PERIOD 1, 04/24 15:00 - 16:00
   **   ~~~   ** The solution for one or more of the Air Loop HVAC systems did not appear to converge
   ** Warning ** SimHVAC: Maximum iterations (20) exceeded for all HVAC loops, at RUN PERIOD 1, 04/24 15:24 - 15:36
   **   ~~~   ** The solution for one or more of the Air Loop HVAC systems did not appear to converge
   ** Warning ** SimHVAC: Maximum iterations (20) exceeded for all HVAC loops, at RUN PERIOD 1, 05/06 16:30 - 17:00
   **   ~~~   ** The solution for one or more of the Air Loop HVAC systems did not appear to converge
   ** Warning ** SimHVAC: Maximum iterations (20) exceeded for all HVAC loops, at RUN PERIOD 1, 05/08 16:00 - 16:30
   **   ~~~   ** The solution for one or more of the Air Loop HVAC systems did not appear to converge
   ** Warning ** SimHVAC: Maximum iterations (20) exceeded for all HVAC loops, at RUN PERIOD 1, 05/08 18:00 - 18:30
   **   ~~~   ** The solution for one or more of the Air Loop HVAC systems did not appear to converge
   ** Warning ** SimHVAC: Maximum iterations (20) exceeded for all HVAC loops, at RUN PERIOD 1, 05/12 18:00 - 19:00
   **   ~~~   ** The solution for one or more of the Air Loop HVAC systems did not appear to converge
   ** Warning ** SimHVAC: Maximum iterations (20) exceeded for all HVAC loops, at RUN PERIOD 1, 05/19 18:00 - 19:00
   **   ~~~   ** The solution for one or more of the Air Loop HVAC systems did not appear to converge
   ** Warning ** SimHVAC: Maximum iterations (20) exceeded for all HVAC loops, at RUN PERIOD 1, 10/31 14:00 - 15:00
   **   ~~~   ** The solution for one or more of the Air Loop HVAC systems did not appear to converge
   ** Warning ** SimHVAC: Maximum iterations (20) exceeded for all HVAC loops, at RUN PERIOD 1, 10/31 14:40 - 15:00
   **   ~~~   ** The solution for one or more of the Air Loop HVAC systems did not appear to converge
   ** Warning ** More than 4% of time (350.4 hours) uncomfortable in one or more zones 
   **   ~~~   ** Based on ASHRAE 55-2004 graph (Section 5.2.1.1)
   **   ~~~   ** During Environment [01/01/2017 - 12/31/2017]: RUN PERIOD 1
   **   ~~~   ** 406.0 hours were uncomfortable in zone: BUILDING STORY 1 THERMALZONE
   **   ~~~   ** 2408.0 hours were uncomfortable in zone: BUILDING STORY 1 THERMALZONE 1
   **   ~~~   ** 2856.0 hours were uncomfortable in zone: BUILDING STORY 1 THERMALZONE 2
   **   ~~~   ** 2561.0 hours were uncomfortable in zone: BUILDING STORY 1 THERMALZONE 3
   **   ~~~   ** 2095.0 hours were uncomfortable in zone: BUILDING STORY 1 THERMALZONE 4
   **   ~~~   ** 1633.0 hours were uncomfortable in zone: BUILDING STORY 2 THERMALZONE 1
   **   ~~~   ** 2054.0 hours were uncomfortable in zone: BUILDING STORY 2 THERMALZONE 2
   **   ~~~   ** 1857.0 hours were uncomfortable in zone: BUILDING STORY 2 THERMALZONE 3
   **   ~~~   ** 1388.0 hours were uncomfortable in zone: BUILDING STORY 2 THERMALZONE 4
   **   ~~~   ** 379.0 hours were uncomfortable in zone: BUILDING STORY 3 THERMALZONE
   **   ~~~   ** 1419.0 hours were uncomfortable in zone: BUILDING STORY 3 THERMALZONE 1
   **   ~~~   ** 1781.0 hours were uncomfortable in zone: BUILDING STORY 3 THERMALZONE 2
   **   ~~~   ** 1652.0 hours were uncomfortable in zone: BUILDING STORY 3 THERMALZONE 3
   **   ~~~   ** 1175.0 hours were uncomfortable in zone: BUILDING STORY 3 THERMALZONE 4
   ** Warning ** The resource referenced by LifeCycleCost:UsePriceEscalation= "U.S. AVG  COMMERCIAL-ELECTRICITY" has no energy cost. 
   **   ~~~   ** ... It is likely that the wrong resource is used. The resource should match the meter used in Utility:Tariff.
   ** Warning ** The resource referenced by LifeCycleCost:UsePriceEscalation= "U.S. AVG  COMMERCIAL-DISTILLATE OIL" has no energy cost. 
   **   ~~~   ** ... It is likely that the wrong resource is used. The resource should match the meter used in Utility:Tariff.
   ** Warning ** The resource referenced by LifeCycleCost:UsePriceEscalation= "U.S. AVG  COMMERCIAL-RESIDUAL OIL" has no energy cost. 
   **   ~~~   ** ... It is likely that the wrong resource is used. The resource should match the meter used in Utility:Tariff.
   ** Warning ** The resource referenced by LifeCycleCost:UsePriceEscalation= "U.S. AVG  COMMERCIAL-NATURAL GAS" has no energy cost. 
   **   ~~~   ** ... It is likely that the wrong resource is used. The resource should match the meter used in Utility:Tariff.
   ** Warning ** The resource referenced by LifeCycleCost:UsePriceEscalation= "U.S. AVG  COMMERCIAL-COAL" has no energy cost. 
   **   ~~~   ** ... It is likely that the wrong resource is used. The resource should match the meter used in Utility:Tariff.
   ************* Simulation Error Summary *************
   ** Warning ** The following Report Variables were requested but not generated -- check.rdd file
   **   ~~~   ** Either the IDF did not contain these elements, the variable name is misspelled,
   **   ~~~   ** or the requested variable is an advanced output which requires Output : Diagnostics, DisplayAdvancedReportVariables;
   ************* Key=*, VarName=FANGERPMV, Frequency=TimeStep
   ************* Key=*, VarName=FANGERPPD, Frequency=TimeStep
   ************* Key=*, VarName=TIME NOT COMFORTABLE SUMMER CLOTHES, Frequency=TimeStep
   ************* Key=*, VarName=TIME NOT COMFORTABLE WINTER CLOTHES, Frequency=TimeStep
   ************* Key=*, VarName=TIME NOT COMFORTABLE SUMMER OR WINTER CLOTHES, Frequency=TimeStep
   ************* Key=*, VarName=DISTRICT COOLING CHILLED WATER RATE, Frequency=TimeStep
   ************* Key=*, VarName=DISTRICT COOLING MASS FLOW RATE, Frequency=TimeStep
   ************* Key=*, VarName=DISTRICT COOLING INLET TEMPERATURE, Frequency=TimeStep
   ************* Key=*, VarName=DISTRICT COOLING OUTLET TEMPERATURE, Frequency=TimeStep
   ************* Key=*, VarName=DISTRICT HEATING HOT WATER RATE, Frequency=TimeStep
   ************* Key=*, VarName=DISTRICT HEATING MASS FLOW RATE, Frequency=TimeStep
   ************* Key=*, VarName=DISTRICT HEATING INLET TEMPERATURE, Frequency=TimeStep
   ************* Key=*, VarName=DISTRICT HEATING OUTLET TEMPERATURE, Frequency=TimeStep
   ************* Key=*, VarName=EXTERIOREQUIPMENT:ELECTRICITY, Frequency=TimeStep
   ************* Key=*, VarName=ICE THERMAL STORAGE END FRACTION, Frequency=TimeStep
   ************* Key=*, VarName=COOLING COIL ICE THERMAL STORAGE END FRACTION, Frequency=TimeStep
   ************* There are 12 unused schedules in input.
   ************* There are 12 unused week schedules in input.
   ************* There are 44 unused day schedules in input.
   ************* Use Output:Diagnostics,DisplayUnusedSchedules; to see them.
   *************
   ************* ===== Recurring Error Summary =====
   ************* The following recurring error messages occurred.
   *************
   *************  ** Warning ** Controller:OutdoorAir="5 ZONE VAV OA CONTROLLER": Min OA fraction > Mechanical ventilation OA fraction, continues...
   *************  **   ~~~   **   This error occurred 320267 total times;
   *************  **   ~~~   **   during Warmup 0 times;
   *************  **   ~~~   **   during Sizing 0 times.
   *************  **   ~~~   **   Max=0.821503  Min=0.821503
   *************
   *************  ** Warning ** Controller:OutdoorAir="5 ZONE VAV 1 OA CONTROLLER": Min OA fraction > Mechanical ventilation OA fraction, continues...
   *************  **   ~~~   **   This error occurred 249435 total times;
   *************  **   ~~~   **   during Warmup 0 times;
   *************  **   ~~~   **   during Sizing 0 times.
   *************  **   ~~~   **   Max=0.34406  Min=0.34406
   *************
   *************  ** Warning ** Controller:OutdoorAir="5 ZONE VAV 2 OA CONTROLLER": Min OA fraction > Mechanical ventilation OA fraction, continues...
   *************  **   ~~~   **   This error occurred 260007 total times;
   *************  **   ~~~   **   during Warmup 0 times;
   *************  **   ~~~   **   during Sizing 0 times.
   *************  **   ~~~   **   Max=0.348222  Min=0.348222
   *************
   *************  ** Warning ** CoolingTower:VariableSpeed "PROPELLER OR AXIAL VARIABLE SPEED FAN OPEN COOLING TOWER 40.2 GPM/HP" - Water flow rate ratio is out of range error continues...
   *************  **   ~~~   **   This error occurred 315 total times;
   *************  **   ~~~   **   during Warmup 0 times;
   *************  **   ~~~   **   during Sizing 0 times.
   *************  **   ~~~   **   Max=1.251416  Min=1.250001
   *************
   *************  ** Warning ** CoolingTower:VariableSpeed "PROPELLER OR AXIAL VARIABLE SPEED FAN OPEN COOLING TOWER 40.2 GPM/HP" - Tower range temperature is out of range error continues...
   *************  **   ~~~   **   This error occurred 8175 total times;
   *************  **   ~~~   **   during Warmup 0 times;
   *************  **   ~~~   **   during Sizing 0 times.
   *************  **   ~~~   **   Max=1.110566  Min=8.666153E-006
   *************
   *************  ** Warning ** CoolingTower:VariableSpeed "PROPELLER OR AXIAL VARIABLE SPEED FAN OPEN COOLING TOWER 40.2 GPM/HP" - Tower approach temperature is out of range error continues...
   *************  **   ~~~   **   This error occurred 3628 total times;
   *************  **   ~~~   **   during Warmup 0 times;
   *************  **   ~~~   **   during Sizing 0 times.
   *************  **   ~~~   **   Max=38.775027  Min=11.111112
   *************
   *************  ** Warning ** CoolingTower:VariableSpeed "PROPELLER OR AXIAL VARIABLE SPEED FAN OPEN COOLING TOWER 40.2 GPM/HP" - Inlet air wet-bulb temperature is out of range error continues...
   *************  **   ~~~   **   This error occurred 496 total times;
   *************  **   ~~~   **   during Warmup 0 times;
   *************  **   ~~~   **   during Sizing 0 times.
   *************  **   ~~~   **   Max=-1.033401  Min=-17.663916
   *************
   *************  ** Warning ** CoolingTower:VariableSpeed "PROPELLER OR AXIAL VARIABLE SPEED FAN OPEN COOLING TOWER 40.2 GPM/HP" - Cooling tower air flow rate ratio calculation failed error continues.
   *************  **   ~~~   **   This error occurred 380 total times;
   *************  **   ~~~   **   during Warmup 0 times;
   *************  **   ~~~   **   during Sizing 0 times.
   *************
   *************
   ************* ===== Final Error Summary =====
   ************* The following error categories occurred.  Consider correcting or noting.
   ************* Nominally Unused Constructions
   ************* ..The nominally unused constructions warning is provided to alert you to potential conditions that can cause
   ************* ..extra time during simulation. Each construction is calculated by the algorithm indicated in the HeatBalanceAlgorithm
   ************* ..object. You may remove the constructions indicated (when you use the DisplayExtraWarnings option).
   *************
   ************* EnergyPlus Warmup Error Summary. During Warmup: 0 Warning; 0 Severe Errors.
   ************* EnergyPlus Sizing Error Summary. During Sizing: 58 Warning; 0 Severe Errors.
   ************* EnergyPlus Completed Successfully-- 842982 Warning; 0 Severe Errors; Elapsed Time=00hr 03min 32.28sec
