Program Version,EnergyPlus, Version 9.4.0-998c4b761e, YMD=2021.03.24 06:33
! <Version>, Version ID
 Version, 9.4
! <Timesteps per Hour>, #TimeSteps, Minutes per TimeStep {minutes}
 Timesteps per Hour,  1, 60
! <System Convergence Limits>, Minimum System TimeStep {minutes}, Max HVAC Iterations, Minimum Plant Iterations, Maximum Plant Iterations
 System Convergence Limits, 1, 20, 2, 8
! <Simulation Control>, Do Zone Sizing, Do System Sizing, Do Plant Sizing, Do Design Days, Do Weather Simulation, Do HVAC Sizing Simulation
 Simulation Control, Yes, Yes, Yes, No, Yes, Yes
! <Performance Precision Tradeoffs>, Use Coil Direct Simulation, Zone Radiant Exchange Algorithm, Override Mode, Number of Timestep In Hour, Force Euler Method, Minimum Number of Warmup Days, Force Suppress All Begin Environment Resets, Minimum System Timestep, MaxZoneTempDiff, MaxAllowedDelTemp
 Performance Precision Tradeoffs, No, ScriptF, Normal, 1, No, 1, No, 1.0, 0.300, 2.0000E-003
! <Output Reporting Tolerances>, Tolerance for Time Heating Setpoint Not Met, Tolerance for Zone Cooling Setpoint Not Met Time
 Output Reporting Tolerances, 0.556, 0.556, 
! <Site:GroundTemperature:BuildingSurface>,Jan{C},Feb{C},Mar{C},Apr{C},May{C},Jun{C},Jul{C},Aug{C},Sep{C},Oct{C},Nov{C},Dec{C}
 Site:GroundTemperature:BuildingSurface,  18.00,  18.00,  18.00,  18.00,  18.00,  18.00,  18.00,  18.00,  18.00,  18.00,  18.00,  18.00
! <Site:GroundTemperature:FCfactorMethod>,Jan{C},Feb{C},Mar{C},Apr{C},May{C},Jun{C},Jul{C},Aug{C},Sep{C},Oct{C},Nov{C},Dec{C}
 Site:GroundTemperature:FCfactorMethod,   7.40,   0.00,  -7.60, -12.60,  -7.70,   0.30,   7.00,  14.20,  19.20,  20.90,  20.00,  15.40
! <Site:GroundTemperature:Shallow>,Jan{C},Feb{C},Mar{C},Apr{C},May{C},Jun{C},Jul{C},Aug{C},Sep{C},Oct{C},Nov{C},Dec{C}
 Site:GroundTemperature:Shallow,  13.00,  13.00,  13.00,  13.00,  13.00,  13.00,  13.00,  13.00,  13.00,  13.00,  13.00,  13.00
! <Site:GroundTemperature:Deep>,Jan{C},Feb{C},Mar{C},Apr{C},May{C},Jun{C},Jul{C},Aug{C},Sep{C},Oct{C},Nov{C},Dec{C}
 Site:GroundTemperature:Deep,  16.00,  16.00,  16.00,  16.00,  16.00,  16.00,  16.00,  16.00,  16.00,  16.00,  16.00,  16.00
! <Site:GroundReflectance>,Jan{dimensionless},Feb{dimensionless},Mar{dimensionless},Apr{dimensionless},May{dimensionless},Jun{dimensionless},Jul{dimensionless},Aug{dimensionless},Sep{dimensionless},Oct{dimensionless},Nov{dimensionless},Dec{dimensionless}
 Site:GroundReflectance,  0.20,  0.20,  0.20,  0.20,  0.20,  0.20,  0.20,  0.20,  0.20,  0.20,  0.20,  0.20
! <Site:GroundReflectance:SnowModifier>, Normal, Daylighting {dimensionless}
 Site:GroundReflectance:SnowModifier,   1.000,   1.000
! <Site:GroundReflectance:Snow>,Jan{dimensionless},Feb{dimensionless},Mar{dimensionless},Apr{dimensionless},May{dimensionless},Jun{dimensionless},Jul{dimensionless},Aug{dimensionless},Sep{dimensionless},Oct{dimensionless},Nov{dimensionless},Dec{dimensionless}
 Site:GroundReflectance:Snow,  0.20,  0.20,  0.20,  0.20,  0.20,  0.20,  0.20,  0.20,  0.20,  0.20,  0.20,  0.20
! <Site:GroundReflectance:Snow:Daylighting>,Jan{dimensionless},Feb{dimensionless},Mar{dimensionless},Apr{dimensionless},May{dimensionless},Jun{dimensionless},Jul{dimensionless},Aug{dimensionless},Sep{dimensionless},Oct{dimensionless},Nov{dimensionless},Dec{dimensionless}
 Site:GroundReflectance:Snow:Daylighting,  0.20,  0.20,  0.20,  0.20,  0.20,  0.20,  0.20,  0.20,  0.20,  0.20,  0.20,  0.20
! <Environment:Weather Station>,Wind Sensor Height Above Ground {m},Wind Speed Profile Exponent {},Wind Speed Profile Boundary Layer Thickness {m},Air Temperature Sensor Height Above Ground {m},Wind Speed Modifier Coefficient-Internal,Temperature Modifier Coefficient-Internal
Environment:Weather Station,10.000,0.140,270.000,1.500,1.586,9.750E-003
! <Site:Location>, Location Name, Latitude {N+/S- Deg}, Longitude {E+/W- Deg},  Time Zone Number {GMT+/-}, Elevation {m},  Standard Pressure at Elevation {Pa}, Standard RhoAir at Elevation
Site:Location,Buffalo Niagara Intl Ap NY USA TMY3 WMO#=725280,42.93,-78.73,-5.00,215.00,98769,1.1739
! <Site Water Mains Temperature Information>,Calculation Method{},Water Mains Temperature Schedule Name{},Annual Average Outdoor Air Temperature{C},Maximum Difference In Monthly Average Outdoor Air Temperatures{deltaC},Fixed Default Water Mains Temperature{C}
Site Water Mains Temperature Information,Correlation,NA,8.97,26.20,NA
! <Building Information>, Building Name,North Axis {deg},Terrain,  Loads Convergence Tolerance Value,Temperature Convergence Tolerance Value,  Solar Distribution,Maximum Number of Warmup Days,Minimum Number of Warmup Days
 Building Information,Mall 1,0.000,City,4.00000E-002,0.40000,FullExterior,25,1
! <Inside Convection Algorithm>, Algorithm {Simple | TARP | CeilingDiffuser | AdaptiveConvectionAlgorithm}
Inside Convection Algorithm,TARP
! <Outside Convection Algorithm>, Algorithm {SimpleCombined | TARP | MoWitt | DOE-2 | AdaptiveConvectionAlgorithm}
Outside Convection Algorithm,DOE-2
! <Sky Radiance Distribution>, Value {Anisotropic}
Sky Radiance Distribution,Anisotropic
! <Zone Air Solution Algorithm>, Value {ThirdOrderBackwardDifference | AnalyticalSolution | EulerMethod}
 Zone Air Solution Algorithm, ThirdOrderBackwardDifference
! <Zone Air Carbon Dioxide Balance Simulation>, Simulation {Yes/No}, Carbon Dioxide Concentration
 Zone Air Carbon Dioxide Balance Simulation, No,N/A
! <Zone Air Generic Contaminant Balance Simulation>, Simulation {Yes/No}, Generic Contaminant Concentration
 Zone Air Generic Contaminant Balance Simulation, No,N/A
! <Zone Air Mass Flow Balance Simulation>, Enforce Mass Balance, Adjust Zone Mixing, Adjust Zone Infiltration {AddInfiltration | AdjustInfiltration | None}, Infiltration Zones {MixingSourceZonesOnly | AllZones}
 Zone Air Mass Flow Balance Simulation, No,N/A,N/A,N/A
! <HVACSystemRootFindingAlgorithm>, Value {RegulaFalsi | Bisection | BisectionThenRegulaFalsi | RegulaFalsiThenBisection}
 HVACSystemRootFindingAlgorithm, RegulaFalsi
! <Environment:Site Atmospheric Variation>,Wind Speed Profile Exponent {},Wind Speed Profile Boundary Layer Thickness {m},Air Temperature Gradient Coefficient {K/m}
Environment:Site Atmospheric Variation,0.330,460.000,6.500000E-003
! <Surface Geometry>,Starting Corner,Vertex Input Direction,Coordinate System,Daylight Reference Point Coordinate System,Rectangular (Simple) Surface Coordinate System
 Surface Geometry,UpperLeftCorner,Counterclockwise,RelativeCoordinateSystem,RelativeCoordinateSystem,RelativeToZoneOrigin
! <Surface Heat Transfer Algorithm>, Value {CTF - ConductionTransferFunction | EMPD - MoisturePenetrationDepthConductionTransferFunction | CondFD - ConductionFiniteDifference | HAMT - CombinedHeatAndMoistureFiniteElement} - Description,Inside Surface Max Temperature Limit{C}, Surface Convection Coefficient Lower Limit {W/m2-K}, Surface Convection Coefficient Upper Limit {W/m2-K}
Surface Heat Transfer Algorithm, CTF - ConductionTransferFunction,200,0.10,1000.0
! <Shading Summary>, Number of Fixed Detached Shades, Number of Building Detached Shades, Number of Attached Shades
 Shading Summary,0,60,0
! <Zone Summary>, Number of Zones, Number of Zone Surfaces, Number of SubSurfaces
 Zone Summary,15,282,12
! <Zone Information>,Zone Name,North Axis {deg},Origin X-Coordinate {m},Origin Y-Coordinate {m},Origin Z-Coordinate {m},Centroid X-Coordinate {m},Centroid Y-Coordinate {m},Centroid Z-Coordinate {m},Type,Zone Multiplier,Zone List Multiplier,Minimum X {m},Maximum X {m},Minimum Y {m},Maximum Y {m},Minimum Z {m},Maximum Z {m},Ceiling Height {m},Volume {m3},Zone Inside Convection Algorithm {Simple-Detailed-CeilingDiffuser-TrombeWall},Zone Outside Convection Algorithm {Simple-Detailed-Tarp-MoWitt-DOE-2-BLAST}, Floor Area {m2},Exterior Gross Wall Area {m2},Exterior Net Wall Area {m2},Exterior Window Area {m2}, Number of Surfaces, Number of SubSurfaces, Number of Shading SubSurfaces,  Part of Total Building Area
 Zone Information, BUILDING STORY 1 THERMALZONE,0.0,0.00,0.00,0.00,60.09,118.07,1.80,1,1,1,3.57,116.62,3.57,232.57,0.00,3.60,3.60,36087.34,TARP,DOE-2,10024.26,0.00,0.00,0.00,6,0,0,Yes
 Zone Information, BUILDING STORY 1 THERMALZONE 1,0.0,0.00,0.00,0.00,37.73,110.73,1.80,1,1,1,-7.94E-011,74.58,3.84E-004,220.61,0.00,3.60,3.60,2336.59,TARP,DOE-2,649.05,836.29,585.41,250.89,6,1,0,Yes
 Zone Information, BUILDING STORY 1 THERMALZONE 2,0.0,0.00,0.00,0.00,24.13,227.09,1.80,1,1,1,-7.94E-011,47.41,218.81,236.14,0.00,3.60,3.60,479.14,TARP,DOE-2,133.10,179.58,125.71,53.88,6,1,0,Yes
 Zone Information, BUILDING STORY 1 THERMALZONE 3,0.0,0.00,0.00,0.00,82.46,125.41,1.80,1,1,1,45.60,120.19,15.53,236.14,0.00,3.60,3.60,2336.60,TARP,DOE-2,649.06,836.29,585.40,250.89,6,1,0,Yes
 Zone Information, BUILDING STORY 1 THERMALZONE 4,0.0,0.00,0.00,0.00,96.06,9.05,1.80,1,1,1,72.78,120.19,3.84E-004,17.33,0.00,3.60,3.60,479.16,TARP,DOE-2,133.10,179.59,125.71,53.88,6,1,0,Yes
 Zone Information, BUILDING STORY 2 THERMALZONE,0.0,0.00,0.00,0.00,60.09,118.07,5.40,1,1,1,3.57,116.62,3.57,232.57,3.60,7.20,3.60,36087.34,TARP,DOE-2,10024.26,0.00,0.00,0.00,6,0,0,Yes
 Zone Information, BUILDING STORY 2 THERMALZONE 1,0.0,0.00,0.00,0.00,37.73,110.73,5.40,1,1,1,-7.94E-011,74.58,3.84E-004,220.61,3.60,7.20,3.60,2336.59,TARP,DOE-2,649.05,836.29,585.41,250.89,6,1,0,Yes
 Zone Information, BUILDING STORY 2 THERMALZONE 2,0.0,0.00,0.00,0.00,24.13,227.09,5.40,1,1,1,-7.94E-011,47.41,218.81,236.14,3.60,7.20,3.60,479.14,TARP,DOE-2,133.10,179.58,125.71,53.88,6,1,0,Yes
 Zone Information, BUILDING STORY 2 THERMALZONE 3,0.0,0.00,0.00,0.00,82.46,125.41,5.40,1,1,1,45.60,120.19,15.53,236.14,3.60,7.20,3.60,2336.60,TARP,DOE-2,649.06,836.29,585.40,250.89,6,1,0,Yes
 Zone Information, BUILDING STORY 2 THERMALZONE 4,0.0,0.00,0.00,0.00,96.06,9.05,5.40,1,1,1,72.78,120.19,3.84E-004,17.33,3.60,7.20,3.60,479.16,TARP,DOE-2,133.10,179.59,125.71,53.88,6,1,0,Yes
 Zone Information, BUILDING STORY 3 THERMALZONE,0.0,0.00,0.00,0.00,60.09,118.07,9.00,1,1,1,3.57,116.62,3.57,232.57,7.20,10.80,3.60,36087.34,TARP,DOE-2,10024.26,0.00,0.00,0.00,6,0,0,Yes
 Zone Information, BUILDING STORY 3 THERMALZONE 1,0.0,0.00,0.00,0.00,37.73,110.73,9.00,1,1,1,-7.94E-011,74.58,3.84E-004,220.61,7.20,10.80,3.60,2336.59,TARP,DOE-2,649.05,836.29,585.41,250.89,6,1,0,Yes
 Zone Information, BUILDING STORY 3 THERMALZONE 2,0.0,0.00,0.00,0.00,24.13,227.09,9.00,1,1,1,-7.94E-011,47.41,218.81,236.14,7.20,10.80,3.60,479.14,TARP,DOE-2,133.10,179.58,125.71,53.88,6,1,0,Yes
 Zone Information, BUILDING STORY 3 THERMALZONE 3,0.0,0.00,0.00,0.00,82.46,125.41,9.00,1,1,1,45.60,120.19,15.53,236.14,7.20,10.80,3.60,2336.60,TARP,DOE-2,649.06,836.29,585.40,250.89,6,1,0,Yes
 Zone Information, BUILDING STORY 3 THERMALZONE 4,0.0,0.00,0.00,0.00,96.06,9.05,9.00,1,1,1,72.78,120.19,3.84E-004,17.33,7.20,10.80,3.60,479.16,TARP,DOE-2,133.10,179.59,125.71,53.88,6,1,0,Yes
! <Zone Internal Gains Nominal>,Zone Name, Floor Area {m2},# Occupants,Area per Occupant {m2/person},Occupant per Area {person/m2},Interior Lighting {W/m2},Electric Load {W/m2},Gas Load {W/m2},Other Load {W/m2},Hot Water Eq {W/m2},Steam Equipment {W/m2},Sum Loads per Area {W/m2},Outdoor Controlled Baseboard Heat
 Zone Internal Gains Nominal, BUILDING STORY 1 THERMALZONE,10024.26,863.2,11.613,8.611E-002,17.074,16.817,0.000,0.000,0.000,0.000,33.891,No
 Zone Internal Gains Nominal, BUILDING STORY 1 THERMALZONE 1,649.05,55.9,11.613,8.611E-002,17.074,16.817,0.000,0.000,0.000,0.000,33.891,No
 Zone Internal Gains Nominal, BUILDING STORY 1 THERMALZONE 2,133.10,11.5,11.613,8.611E-002,17.074,16.817,0.000,0.000,0.000,0.000,33.891,No
 Zone Internal Gains Nominal, BUILDING STORY 1 THERMALZONE 3,649.06,55.9,11.613,8.611E-002,17.074,16.817,0.000,0.000,0.000,0.000,33.891,No
 Zone Internal Gains Nominal, BUILDING STORY 1 THERMALZONE 4,133.10,11.5,11.613,8.611E-002,17.074,16.817,0.000,0.000,0.000,0.000,33.891,No
 Zone Internal Gains Nominal, BUILDING STORY 2 THERMALZONE,10024.26,863.2,11.613,8.611E-002,14.741,4.306,0.000,0.000,0.000,0.000,19.046,No
 Zone Internal Gains Nominal, BUILDING STORY 2 THERMALZONE 1,649.05,55.9,11.613,8.611E-002,14.741,4.306,0.000,0.000,0.000,0.000,19.046,No
 Zone Internal Gains Nominal, BUILDING STORY 2 THERMALZONE 2,133.10,11.5,11.613,8.611E-002,14.741,4.306,0.000,0.000,0.000,0.000,19.046,No
 Zone Internal Gains Nominal, BUILDING STORY 2 THERMALZONE 3,649.06,55.9,11.613,8.611E-002,14.741,4.306,0.000,0.000,0.000,0.000,19.046,No
 Zone Internal Gains Nominal, BUILDING STORY 2 THERMALZONE 4,133.10,11.5,11.613,8.611E-002,14.741,4.306,0.000,0.000,0.000,0.000,19.046,No
 Zone Internal Gains Nominal, BUILDING STORY 3 THERMALZONE,10024.26,863.2,11.613,8.611E-002,13.933,4.306,0.000,0.000,0.000,0.000,18.239,No
 Zone Internal Gains Nominal, BUILDING STORY 3 THERMALZONE 1,649.05,55.9,11.613,8.611E-002,13.933,4.306,0.000,0.000,0.000,0.000,18.239,No
 Zone Internal Gains Nominal, BUILDING STORY 3 THERMALZONE 2,133.10,11.5,11.613,8.611E-002,13.933,4.306,0.000,0.000,0.000,0.000,18.239,No
 Zone Internal Gains Nominal, BUILDING STORY 3 THERMALZONE 3,649.06,55.9,11.613,8.611E-002,13.933,4.306,0.000,0.000,0.000,0.000,18.239,No
 Zone Internal Gains Nominal, BUILDING STORY 3 THERMALZONE 4,133.10,11.5,11.613,8.611E-002,13.933,4.306,0.000,0.000,0.000,0.000,18.239,No
! <People Internal Gains Nominal>,Name,Schedule Name,Zone Name,Zone Floor Area {m2},# Zone Occupants,Number of People {},People/Floor Area {person/m2},Floor Area per person {m2/person},Fraction Radiant,Fraction Convected,Sensible Fraction Calculation,Activity level,ASHRAE 55 Warnings,Carbon Dioxide Generation Rate,Nominal Minimum Number of People,Nominal Maximum Number of People,MRT Calculation Type,Work Efficiency, Clothing Insulation Calculation Method,Clothing Insulation Calculation Method Schedule,Clothing,Air Velocity,Fanger Calculation,Pierce Calculation,KSU Calculation
 People Internal Gains Nominal, BUILDING STORY 1 THERMALZONE STRIPMALL STRIP MALL - TYPE 1 PEOPLE 1,RETAILSTRIPMALL TYPE1_OCC_SCH,BUILDING STORY 1 THERMALZONE,10024.26,863.2,647.4,6.458E-002,15.484,0.300,0.700,AutoCalculate,HOTELSMALL ACTIVITY_SCH,Yes,3.8200E-008,0,647,Zone Averaged,WORK EFFICIENCY SCHEDULE,Clothing Insulation Schedule,N/A,CLOTHING SCHEDULE,AIR VELOCITY SCHEDULE,Yes,No,No
 People Internal Gains Nominal, BUILDING STORY 1 THERMALZONE 1 STRIPMALL STRIP MALL - TYPE 1 PEOPLE 1,RETAILSTRIPMALL TYPE1_OCC_SCH,BUILDING STORY 1 THERMALZONE 1,649.05,55.9,41.9,6.458E-002,15.484,0.300,0.700,AutoCalculate,HOTELSMALL ACTIVITY_SCH,Yes,3.8200E-008,0,42,Zone Averaged,WORK EFFICIENCY SCHEDULE,Clothing Insulation Schedule,N/A,CLOTHING SCHEDULE,AIR VELOCITY SCHEDULE,Yes,No,No
 People Internal Gains Nominal, BUILDING STORY 1 THERMALZONE 2 STRIPMALL STRIP MALL - TYPE 1 PEOPLE 1,RETAILSTRIPMALL TYPE1_OCC_SCH,BUILDING STORY 1 THERMALZONE 2,133.10,11.5,8.6,6.458E-002,15.484,0.300,0.700,AutoCalculate,HOTELSMALL ACTIVITY_SCH,Yes,3.8200E-008,0,9,Zone Averaged,WORK EFFICIENCY SCHEDULE,Clothing Insulation Schedule,N/A,CLOTHING SCHEDULE,AIR VELOCITY SCHEDULE,Yes,No,No
 People Internal Gains Nominal, BUILDING STORY 1 THERMALZONE 3 STRIPMALL STRIP MALL - TYPE 1 PEOPLE 1,RETAILSTRIPMALL TYPE1_OCC_SCH,BUILDING STORY 1 THERMALZONE 3,649.06,55.9,41.9,6.458E-002,15.484,0.300,0.700,AutoCalculate,HOTELSMALL ACTIVITY_SCH,Yes,3.8200E-008,0,42,Zone Averaged,WORK EFFICIENCY SCHEDULE,Clothing Insulation Schedule,N/A,CLOTHING SCHEDULE,AIR VELOCITY SCHEDULE,Yes,No,No
 People Internal Gains Nominal, BUILDING STORY 1 THERMALZONE 4 STRIPMALL STRIP MALL - TYPE 1 PEOPLE 1,RETAILSTRIPMALL TYPE1_OCC_SCH,BUILDING STORY 1 THERMALZONE 4,133.10,11.5,8.6,6.458E-002,15.484,0.300,0.700,AutoCalculate,HOTELSMALL ACTIVITY_SCH,Yes,3.8200E-008,0,9,Zone Averaged,WORK EFFICIENCY SCHEDULE,Clothing Insulation Schedule,N/A,CLOTHING SCHEDULE,AIR VELOCITY SCHEDULE,Yes,No,No
 People Internal Gains Nominal, BUILDING STORY 1 THERMALZONE STRIPMALL STRIP MALL - TYPE 2 PEOPLE 1,RETAILSTRIPMALL TYPE2_OCC_SCH,BUILDING STORY 1 THERMALZONE,10024.26,863.2,215.8,2.153E-002,46.452,0.300,0.700,AutoCalculate,HOTELSMALL ACTIVITY_SCH,Yes,3.8200E-008,0,216,Zone Averaged,WORK EFFICIENCY SCHEDULE,Clothing Insulation Schedule,N/A,CLOTHING SCHEDULE,AIR VELOCITY SCHEDULE,Yes,No,No
 People Internal Gains Nominal, BUILDING STORY 1 THERMALZONE 1 STRIPMALL STRIP MALL - TYPE 2 PEOPLE 1,RETAILSTRIPMALL TYPE2_OCC_SCH,BUILDING STORY 1 THERMALZONE 1,649.05,55.9,14.0,2.153E-002,46.452,0.300,0.700,AutoCalculate,HOTELSMALL ACTIVITY_SCH,Yes,3.8200E-008,0,14,Zone Averaged,WORK EFFICIENCY SCHEDULE,Clothing Insulation Schedule,N/A,CLOTHING SCHEDULE,AIR VELOCITY SCHEDULE,Yes,No,No
 People Internal Gains Nominal, BUILDING STORY 1 THERMALZONE 2 STRIPMALL STRIP MALL - TYPE 2 PEOPLE 1,RETAILSTRIPMALL TYPE2_OCC_SCH,BUILDING STORY 1 THERMALZONE 2,133.10,11.5,2.9,2.153E-002,46.452,0.300,0.700,AutoCalculate,HOTELSMALL ACTIVITY_SCH,Yes,3.8200E-008,0,3,Zone Averaged,WORK EFFICIENCY SCHEDULE,Clothing Insulation Schedule,N/A,CLOTHING SCHEDULE,AIR VELOCITY SCHEDULE,Yes,No,No
 People Internal Gains Nominal, BUILDING STORY 1 THERMALZONE 3 STRIPMALL STRIP MALL - TYPE 2 PEOPLE 1,RETAILSTRIPMALL TYPE2_OCC_SCH,BUILDING STORY 1 THERMALZONE 3,649.06,55.9,14.0,2.153E-002,46.452,0.300,0.700,AutoCalculate,HOTELSMALL ACTIVITY_SCH,Yes,3.8200E-008,0,14,Zone Averaged,WORK EFFICIENCY SCHEDULE,Clothing Insulation Schedule,N/A,CLOTHING SCHEDULE,AIR VELOCITY SCHEDULE,Yes,No,No
 People Internal Gains Nominal, BUILDING STORY 1 THERMALZONE 4 STRIPMALL STRIP MALL - TYPE 2 PEOPLE 1,RETAILSTRIPMALL TYPE2_OCC_SCH,BUILDING STORY 1 THERMALZONE 4,133.10,11.5,2.9,2.153E-002,46.452,0.300,0.700,AutoCalculate,HOTELSMALL ACTIVITY_SCH,Yes,3.8200E-008,0,3,Zone Averaged,WORK EFFICIENCY SCHEDULE,Clothing Insulation Schedule,N/A,CLOTHING SCHEDULE,AIR VELOCITY SCHEDULE,Yes,No,No
 People Internal Gains Nominal, BUILDING STORY 2 THERMALZONE STRIPMALL STRIP MALL - TYPE 2 PEOPLE 2,RETAILSTRIPMALL TYPE2_OCC_SCH,BUILDING STORY 2 THERMALZONE,10024.26,863.2,431.6,4.306E-002,23.226,0.300,0.700,AutoCalculate,HOTELSMALL ACTIVITY_SCH,Yes,3.8200E-008,0,432,Zone Averaged,WORK EFFICIENCY SCHEDULE,Clothing Insulation Schedule,N/A,CLOTHING SCHEDULE,AIR VELOCITY SCHEDULE,Yes,No,No
 People Internal Gains Nominal, BUILDING STORY 2 THERMALZONE 1 STRIPMALL STRIP MALL - TYPE 2 PEOPLE 2,RETAILSTRIPMALL TYPE2_OCC_SCH,BUILDING STORY 2 THERMALZONE 1,649.05,55.9,27.9,4.306E-002,23.226,0.300,0.700,AutoCalculate,HOTELSMALL ACTIVITY_SCH,Yes,3.8200E-008,0,28,Zone Averaged,WORK EFFICIENCY SCHEDULE,Clothing Insulation Schedule,N/A,CLOTHING SCHEDULE,AIR VELOCITY SCHEDULE,Yes,No,No
 People Internal Gains Nominal, BUILDING STORY 2 THERMALZONE 2 STRIPMALL STRIP MALL - TYPE 2 PEOPLE 2,RETAILSTRIPMALL TYPE2_OCC_SCH,BUILDING STORY 2 THERMALZONE 2,133.10,11.5,5.7,4.306E-002,23.226,0.300,0.700,AutoCalculate,HOTELSMALL ACTIVITY_SCH,Yes,3.8200E-008,0,6,Zone Averaged,WORK EFFICIENCY SCHEDULE,Clothing Insulation Schedule,N/A,CLOTHING SCHEDULE,AIR VELOCITY SCHEDULE,Yes,No,No
 People Internal Gains Nominal, BUILDING STORY 2 THERMALZONE 3 STRIPMALL STRIP MALL - TYPE 2 PEOPLE 2,RETAILSTRIPMALL TYPE2_OCC_SCH,BUILDING STORY 2 THERMALZONE 3,649.06,55.9,27.9,4.306E-002,23.226,0.300,0.700,AutoCalculate,HOTELSMALL ACTIVITY_SCH,Yes,3.8200E-008,0,28,Zone Averaged,WORK EFFICIENCY SCHEDULE,Clothing Insulation Schedule,N/A,CLOTHING SCHEDULE,AIR VELOCITY SCHEDULE,Yes,No,No
 People Internal Gains Nominal, BUILDING STORY 2 THERMALZONE 4 STRIPMALL STRIP MALL - TYPE 2 PEOPLE 2,RETAILSTRIPMALL TYPE2_OCC_SCH,BUILDING STORY 2 THERMALZONE 4,133.10,11.5,5.7,4.306E-002,23.226,0.300,0.700,AutoCalculate,HOTELSMALL ACTIVITY_SCH,Yes,3.8200E-008,0,6,Zone Averaged,WORK EFFICIENCY SCHEDULE,Clothing Insulation Schedule,N/A,CLOTHING SCHEDULE,AIR VELOCITY SCHEDULE,Yes,No,No
 People Internal Gains Nominal, BUILDING STORY 2 THERMALZONE STRIPMALL STRIP MALL - TYPE 3 PEOPLE 1,RETAILSTRIPMALL TYPE3_OCC_SCH,BUILDING STORY 2 THERMALZONE,10024.26,863.2,431.6,4.306E-002,23.226,0.300,0.700,AutoCalculate,HOTELSMALL ACTIVITY_SCH,Yes,3.8200E-008,0,432,Zone Averaged,WORK EFFICIENCY SCHEDULE,Clothing Insulation Schedule,N/A,CLOTHING SCHEDULE,AIR VELOCITY SCHEDULE,Yes,No,No
 People Internal Gains Nominal, BUILDING STORY 2 THERMALZONE 1 STRIPMALL STRIP MALL - TYPE 3 PEOPLE 1,RETAILSTRIPMALL TYPE3_OCC_SCH,BUILDING STORY 2 THERMALZONE 1,649.05,55.9,27.9,4.306E-002,23.226,0.300,0.700,AutoCalculate,HOTELSMALL ACTIVITY_SCH,Yes,3.8200E-008,0,28,Zone Averaged,WORK EFFICIENCY SCHEDULE,Clothing Insulation Schedule,N/A,CLOTHING SCHEDULE,AIR VELOCITY SCHEDULE,Yes,No,No
 People Internal Gains Nominal, BUILDING STORY 2 THERMALZONE 2 STRIPMALL STRIP MALL - TYPE 3 PEOPLE 1,RETAILSTRIPMALL TYPE3_OCC_SCH,BUILDING STORY 2 THERMALZONE 2,133.10,11.5,5.7,4.306E-002,23.226,0.300,0.700,AutoCalculate,HOTELSMALL ACTIVITY_SCH,Yes,3.8200E-008,0,6,Zone Averaged,WORK EFFICIENCY SCHEDULE,Clothing Insulation Schedule,N/A,CLOTHING SCHEDULE,AIR VELOCITY SCHEDULE,Yes,No,No
 People Internal Gains Nominal, BUILDING STORY 2 THERMALZONE 3 STRIPMALL STRIP MALL - TYPE 3 PEOPLE 1,RETAILSTRIPMALL TYPE3_OCC_SCH,BUILDING STORY 2 THERMALZONE 3,649.06,55.9,27.9,4.306E-002,23.226,0.300,0.700,AutoCalculate,HOTELSMALL ACTIVITY_SCH,Yes,3.8200E-008,0,28,Zone Averaged,WORK EFFICIENCY SCHEDULE,Clothing Insulation Schedule,N/A,CLOTHING SCHEDULE,AIR VELOCITY SCHEDULE,Yes,No,No
 People Internal Gains Nominal, BUILDING STORY 2 THERMALZONE 4 STRIPMALL STRIP MALL - TYPE 3 PEOPLE 1,RETAILSTRIPMALL TYPE3_OCC_SCH,BUILDING STORY 2 THERMALZONE 4,133.10,11.5,5.7,4.306E-002,23.226,0.300,0.700,AutoCalculate,HOTELSMALL ACTIVITY_SCH,Yes,3.8200E-008,0,6,Zone Averaged,WORK EFFICIENCY SCHEDULE,Clothing Insulation Schedule,N/A,CLOTHING SCHEDULE,AIR VELOCITY SCHEDULE,Yes,No,No
 People Internal Gains Nominal, BUILDING STORY 3 THERMALZONE STRIPMALL STRIP MALL - TYPE 3 PEOPLE 2,RETAILSTRIPMALL TYPE3_OCC_SCH,BUILDING STORY 3 THERMALZONE,10024.26,863.2,863.2,8.611E-002,11.613,0.300,0.700,AutoCalculate,HOTELSMALL ACTIVITY_SCH,Yes,3.8200E-008,0,863,Zone Averaged,WORK EFFICIENCY SCHEDULE,Clothing Insulation Schedule,N/A,CLOTHING SCHEDULE,AIR VELOCITY SCHEDULE,Yes,No,No
 People Internal Gains Nominal, BUILDING STORY 3 THERMALZONE 1 STRIPMALL STRIP MALL - TYPE 3 PEOPLE 2,RETAILSTRIPMALL TYPE3_OCC_SCH,BUILDING STORY 3 THERMALZONE 1,649.05,55.9,55.9,8.611E-002,11.613,0.300,0.700,AutoCalculate,HOTELSMALL ACTIVITY_SCH,Yes,3.8200E-008,0,56,Zone Averaged,WORK EFFICIENCY SCHEDULE,Clothing Insulation Schedule,N/A,CLOTHING SCHEDULE,AIR VELOCITY SCHEDULE,Yes,No,No
 People Internal Gains Nominal, BUILDING STORY 3 THERMALZONE 2 STRIPMALL STRIP MALL - TYPE 3 PEOPLE 2,RETAILSTRIPMALL TYPE3_OCC_SCH,BUILDING STORY 3 THERMALZONE 2,133.10,11.5,11.5,8.611E-002,11.613,0.300,0.700,AutoCalculate,HOTELSMALL ACTIVITY_SCH,Yes,3.8200E-008,0,11,Zone Averaged,WORK EFFICIENCY SCHEDULE,Clothing Insulation Schedule,N/A,CLOTHING SCHEDULE,AIR VELOCITY SCHEDULE,Yes,No,No
 People Internal Gains Nominal, BUILDING STORY 3 THERMALZONE 3 STRIPMALL STRIP MALL - TYPE 3 PEOPLE 2,RETAILSTRIPMALL TYPE3_OCC_SCH,BUILDING STORY 3 THERMALZONE 3,649.06,55.9,55.9,8.611E-002,11.613,0.300,0.700,AutoCalculate,HOTELSMALL ACTIVITY_SCH,Yes,3.8200E-008,0,56,Zone Averaged,WORK EFFICIENCY SCHEDULE,Clothing Insulation Schedule,N/A,CLOTHING SCHEDULE,AIR VELOCITY SCHEDULE,Yes,No,No
 People Internal Gains Nominal, BUILDING STORY 3 THERMALZONE 4 STRIPMALL STRIP MALL - TYPE 3 PEOPLE 2,RETAILSTRIPMALL TYPE3_OCC_SCH,BUILDING STORY 3 THERMALZONE 4,133.10,11.5,11.5,8.611E-002,11.613,0.300,0.700,AutoCalculate,HOTELSMALL ACTIVITY_SCH,Yes,3.8200E-008,0,11,Zone Averaged,WORK EFFICIENCY SCHEDULE,Clothing Insulation Schedule,N/A,CLOTHING SCHEDULE,AIR VELOCITY SCHEDULE,Yes,No,No
! <Lights Internal Gains Nominal>,Name,Schedule Name,Zone Name,Zone Floor Area {m2},# Zone Occupants,Lighting Level {W},Lights/Floor Area {W/m2},Lights per person {W/person},Fraction Return Air,Fraction Radiant,Fraction Short Wave,Fraction Convected,Fraction Replaceable,End-Use Category,Nominal Minimum Lighting Level {W},Nominal Maximum Lighting Level {W}
 Lights Internal Gains Nominal, BUILDING STORY 1 THERMALZONE STRIPMALL STRIP MALL - TYPE 1 ADDITIONAL LIGHTS 1,RETAILSTRIPMALL TYPE1_LIGHT_SCH_2013,BUILDING STORY 1 THERMALZONE,10024.26,863.2,31031.570,3.096,35.949,0.000,0.700,0.200,0.100,1.000,General,0.000,31031.570
 Lights Internal Gains Nominal, BUILDING STORY 1 THERMALZONE 1 STRIPMALL STRIP MALL - TYPE 1 ADDITIONAL LIGHTS 1,RETAILSTRIPMALL TYPE1_LIGHT_SCH_2013,BUILDING STORY 1 THERMALZONE 1,649.05,55.9,2009.239,3.096,35.949,0.000,0.700,0.200,0.100,1.000,General,0.000,2009.239
 Lights Internal Gains Nominal, BUILDING STORY 1 THERMALZONE 2 STRIPMALL STRIP MALL - TYPE 1 ADDITIONAL LIGHTS 1,RETAILSTRIPMALL TYPE1_LIGHT_SCH_2013,BUILDING STORY 1 THERMALZONE 2,133.10,11.5,412.016,3.096,35.949,0.000,0.700,0.200,0.100,1.000,General,0.000,412.016
 Lights Internal Gains Nominal, BUILDING STORY 1 THERMALZONE 3 STRIPMALL STRIP MALL - TYPE 1 ADDITIONAL LIGHTS 1,RETAILSTRIPMALL TYPE1_LIGHT_SCH_2013,BUILDING STORY 1 THERMALZONE 3,649.06,55.9,2009.245,3.096,35.949,0.000,0.700,0.200,0.100,1.000,General,0.000,2009.245
 Lights Internal Gains Nominal, BUILDING STORY 1 THERMALZONE 4 STRIPMALL STRIP MALL - TYPE 1 ADDITIONAL LIGHTS 1,RETAILSTRIPMALL TYPE1_LIGHT_SCH_2013,BUILDING STORY 1 THERMALZONE 4,133.10,11.5,412.029,3.096,35.949,0.000,0.700,0.200,0.100,1.000,General,0.000,412.029
 Lights Internal Gains Nominal, BUILDING STORY 1 THERMALZONE STRIPMALL STRIP MALL - TYPE 1 LIGHTS 1,RETAILSTRIPMALL TYPE1_LIGHT_SCH_2013,BUILDING STORY 1 THERMALZONE,10024.26,863.2,101156.477,10.091,117.188,0.000,0.700,0.200,0.100,1.000,General,0.000,101156.477
 Lights Internal Gains Nominal, BUILDING STORY 1 THERMALZONE 1 STRIPMALL STRIP MALL - TYPE 1 LIGHTS 1,RETAILSTRIPMALL TYPE1_LIGHT_SCH_2013,BUILDING STORY 1 THERMALZONE 1,649.05,55.9,6549.702,10.091,117.188,0.000,0.700,0.200,0.100,1.000,General,0.000,6549.702
 Lights Internal Gains Nominal, BUILDING STORY 1 THERMALZONE 2 STRIPMALL STRIP MALL - TYPE 1 LIGHTS 1,RETAILSTRIPMALL TYPE1_LIGHT_SCH_2013,BUILDING STORY 1 THERMALZONE 2,133.10,11.5,1343.088,10.091,117.188,0.000,0.700,0.200,0.100,1.000,General,0.000,1343.088
 Lights Internal Gains Nominal, BUILDING STORY 1 THERMALZONE 3 STRIPMALL STRIP MALL - TYPE 1 LIGHTS 1,RETAILSTRIPMALL TYPE1_LIGHT_SCH_2013,BUILDING STORY 1 THERMALZONE 3,649.06,55.9,6549.722,10.091,117.188,0.000,0.700,0.200,0.100,1.000,General,0.000,6549.722
 Lights Internal Gains Nominal, BUILDING STORY 1 THERMALZONE 4 STRIPMALL STRIP MALL - TYPE 1 LIGHTS 1,RETAILSTRIPMALL TYPE1_LIGHT_SCH_2013,BUILDING STORY 1 THERMALZONE 4,133.10,11.5,1343.128,10.091,117.188,0.000,0.700,0.200,0.100,1.000,General,0.000,1343.128
 Lights Internal Gains Nominal, BUILDING STORY 1 THERMALZONE STRIPMALL STRIP MALL - TYPE 2 ADDITIONAL LIGHTS 1,RETAILSTRIPMALL TYPE2_LIGHT_SCH_2013,BUILDING STORY 1 THERMALZONE,10024.26,863.2,5245.570,0.523,6.077,0.000,0.700,0.200,0.100,1.000,General,0.000,5245.570
 Lights Internal Gains Nominal, BUILDING STORY 1 THERMALZONE 1 STRIPMALL STRIP MALL - TYPE 2 ADDITIONAL LIGHTS 1,RETAILSTRIPMALL TYPE2_LIGHT_SCH_2013,BUILDING STORY 1 THERMALZONE 1,649.05,55.9,339.641,0.523,6.077,0.000,0.700,0.200,0.100,1.000,General,0.000,339.641
 Lights Internal Gains Nominal, BUILDING STORY 1 THERMALZONE 2 STRIPMALL STRIP MALL - TYPE 2 ADDITIONAL LIGHTS 1,RETAILSTRIPMALL TYPE2_LIGHT_SCH_2013,BUILDING STORY 1 THERMALZONE 2,133.10,11.5,69.647,0.523,6.077,0.000,0.700,0.200,0.100,1.000,General,0.000,69.647
 Lights Internal Gains Nominal, BUILDING STORY 1 THERMALZONE 3 STRIPMALL STRIP MALL - TYPE 2 ADDITIONAL LIGHTS 1,RETAILSTRIPMALL TYPE2_LIGHT_SCH_2013,BUILDING STORY 1 THERMALZONE 3,649.06,55.9,339.642,0.523,6.077,0.000,0.700,0.200,0.100,1.000,General,0.000,339.642
 Lights Internal Gains Nominal, BUILDING STORY 1 THERMALZONE 4 STRIPMALL STRIP MALL - TYPE 2 ADDITIONAL LIGHTS 1,RETAILSTRIPMALL TYPE2_LIGHT_SCH_2013,BUILDING STORY 1 THERMALZONE 4,133.10,11.5,69.649,0.523,6.077,0.000,0.700,0.200,0.100,1.000,General,0.000,69.649
 Lights Internal Gains Nominal, BUILDING STORY 1 THERMALZONE STRIPMALL STRIP MALL - TYPE 2 LIGHTS 1,RETAILSTRIPMALL TYPE2_LIGHT_SCH_2013,BUILDING STORY 1 THERMALZONE,10024.26,863.2,33718.826,3.364,39.063,0.000,0.700,0.200,0.100,1.000,General,0.000,33718.826
 Lights Internal Gains Nominal, BUILDING STORY 1 THERMALZONE 1 STRIPMALL STRIP MALL - TYPE 2 LIGHTS 1,RETAILSTRIPMALL TYPE2_LIGHT_SCH_2013,BUILDING STORY 1 THERMALZONE 1,649.05,55.9,2183.234,3.364,39.063,0.000,0.700,0.200,0.100,1.000,General,0.000,2183.234
 Lights Internal Gains Nominal, BUILDING STORY 1 THERMALZONE 2 STRIPMALL STRIP MALL - TYPE 2 LIGHTS 1,RETAILSTRIPMALL TYPE2_LIGHT_SCH_2013,BUILDING STORY 1 THERMALZONE 2,133.10,11.5,447.696,3.364,39.063,0.000,0.700,0.200,0.100,1.000,General,0.000,447.696
 Lights Internal Gains Nominal, BUILDING STORY 1 THERMALZONE 3 STRIPMALL STRIP MALL - TYPE 2 LIGHTS 1,RETAILSTRIPMALL TYPE2_LIGHT_SCH_2013,BUILDING STORY 1 THERMALZONE 3,649.06,55.9,2183.241,3.364,39.063,0.000,0.700,0.200,0.100,1.000,General,0.000,2183.241
 Lights Internal Gains Nominal, BUILDING STORY 1 THERMALZONE 4 STRIPMALL STRIP MALL - TYPE 2 LIGHTS 1,RETAILSTRIPMALL TYPE2_LIGHT_SCH_2013,BUILDING STORY 1 THERMALZONE 4,133.10,11.5,447.709,3.364,39.063,0.000,0.700,0.200,0.100,1.000,General,0.000,447.709
 Lights Internal Gains Nominal, BUILDING STORY 2 THERMALZONE STRIPMALL STRIP MALL - TYPE 2 ADDITIONAL LIGHTS 2,RETAILSTRIPMALL TYPE2_LIGHT_SCH_2013,BUILDING STORY 2 THERMALZONE,10024.26,863.2,10491.141,1.047,12.154,0.000,0.700,0.200,0.100,1.000,General,0.000,10491.141
 Lights Internal Gains Nominal, BUILDING STORY 2 THERMALZONE 1 STRIPMALL STRIP MALL - TYPE 2 ADDITIONAL LIGHTS 2,RETAILSTRIPMALL TYPE2_LIGHT_SCH_2013,BUILDING STORY 2 THERMALZONE 1,649.05,55.9,679.283,1.047,12.154,0.000,0.700,0.200,0.100,1.000,General,0.000,679.283
 Lights Internal Gains Nominal, BUILDING STORY 2 THERMALZONE 2 STRIPMALL STRIP MALL - TYPE 2 ADDITIONAL LIGHTS 2,RETAILSTRIPMALL TYPE2_LIGHT_SCH_2013,BUILDING STORY 2 THERMALZONE 2,133.10,11.5,139.294,1.047,12.154,0.000,0.700,0.200,0.100,1.000,General,0.000,139.294
 Lights Internal Gains Nominal, BUILDING STORY 2 THERMALZONE 3 STRIPMALL STRIP MALL - TYPE 2 ADDITIONAL LIGHTS 2,RETAILSTRIPMALL TYPE2_LIGHT_SCH_2013,BUILDING STORY 2 THERMALZONE 3,649.06,55.9,679.285,1.047,12.154,0.000,0.700,0.200,0.100,1.000,General,0.000,679.285
 Lights Internal Gains Nominal, BUILDING STORY 2 THERMALZONE 4 STRIPMALL STRIP MALL - TYPE 2 ADDITIONAL LIGHTS 2,RETAILSTRIPMALL TYPE2_LIGHT_SCH_2013,BUILDING STORY 2 THERMALZONE 4,133.10,11.5,139.299,1.047,12.154,0.000,0.700,0.200,0.100,1.000,General,0.000,139.299
 Lights Internal Gains Nominal, BUILDING STORY 2 THERMALZONE STRIPMALL STRIP MALL - TYPE 2 LIGHTS 2,RETAILSTRIPMALL TYPE2_LIGHT_SCH_2013,BUILDING STORY 2 THERMALZONE,10024.26,863.2,67437.652,6.727,78.125,0.000,0.700,0.200,0.100,1.000,General,0.000,67437.652
 Lights Internal Gains Nominal, BUILDING STORY 2 THERMALZONE 1 STRIPMALL STRIP MALL - TYPE 2 LIGHTS 2,RETAILSTRIPMALL TYPE2_LIGHT_SCH_2013,BUILDING STORY 2 THERMALZONE 1,649.05,55.9,4366.468,6.727,78.125,0.000,0.700,0.200,0.100,1.000,General,0.000,4366.468
 Lights Internal Gains Nominal, BUILDING STORY 2 THERMALZONE 2 STRIPMALL STRIP MALL - TYPE 2 LIGHTS 2,RETAILSTRIPMALL TYPE2_LIGHT_SCH_2013,BUILDING STORY 2 THERMALZONE 2,133.10,11.5,895.392,6.727,78.125,0.000,0.700,0.200,0.100,1.000,General,0.000,895.392
 Lights Internal Gains Nominal, BUILDING STORY 2 THERMALZONE 3 STRIPMALL STRIP MALL - TYPE 2 LIGHTS 2,RETAILSTRIPMALL TYPE2_LIGHT_SCH_2013,BUILDING STORY 2 THERMALZONE 3,649.06,55.9,4366.482,6.727,78.125,0.000,0.700,0.200,0.100,1.000,General,0.000,4366.482
 Lights Internal Gains Nominal, BUILDING STORY 2 THERMALZONE 4 STRIPMALL STRIP MALL - TYPE 2 LIGHTS 2,RETAILSTRIPMALL TYPE2_LIGHT_SCH_2013,BUILDING STORY 2 THERMALZONE 4,133.10,11.5,895.419,6.727,78.125,0.000,0.700,0.200,0.100,1.000,General,0.000,895.419
 Lights Internal Gains Nominal, BUILDING STORY 2 THERMALZONE STRIPMALL STRIP MALL - TYPE 3 ADDITIONAL LIGHTS 1,RETAILSTRIPMALL TYPE3_LIGHT_SCH_2013,BUILDING STORY 2 THERMALZONE,10024.26,863.2,2398.676,0.239,2.779,0.000,0.700,0.200,0.100,1.000,General,0.000,2398.676
 Lights Internal Gains Nominal, BUILDING STORY 2 THERMALZONE 1 STRIPMALL STRIP MALL - TYPE 3 ADDITIONAL LIGHTS 1,RETAILSTRIPMALL TYPE3_LIGHT_SCH_2013,BUILDING STORY 2 THERMALZONE 1,649.05,55.9,155.310,0.239,2.779,0.000,0.700,0.200,0.100,1.000,General,0.000,155.310
 Lights Internal Gains Nominal, BUILDING STORY 2 THERMALZONE 2 STRIPMALL STRIP MALL - TYPE 3 ADDITIONAL LIGHTS 1,RETAILSTRIPMALL TYPE3_LIGHT_SCH_2013,BUILDING STORY 2 THERMALZONE 2,133.10,11.5,31.848,0.239,2.779,0.000,0.700,0.200,0.100,1.000,General,0.000,31.848
 Lights Internal Gains Nominal, BUILDING STORY 2 THERMALZONE 3 STRIPMALL STRIP MALL - TYPE 3 ADDITIONAL LIGHTS 1,RETAILSTRIPMALL TYPE3_LIGHT_SCH_2013,BUILDING STORY 2 THERMALZONE 3,649.06,55.9,155.311,0.239,2.779,0.000,0.700,0.200,0.100,1.000,General,0.000,155.311
 Lights Internal Gains Nominal, BUILDING STORY 2 THERMALZONE 4 STRIPMALL STRIP MALL - TYPE 3 ADDITIONAL LIGHTS 1,RETAILSTRIPMALL TYPE3_LIGHT_SCH_2013,BUILDING STORY 2 THERMALZONE 4,133.10,11.5,31.849,0.239,2.779,0.000,0.700,0.200,0.100,1.000,General,0.000,31.849
 Lights Internal Gains Nominal, BUILDING STORY 2 THERMALZONE STRIPMALL STRIP MALL - TYPE 3 LIGHTS 1,RETAILSTRIPMALL TYPE3_LIGHT_SCH_2013,BUILDING STORY 2 THERMALZONE,10024.26,863.2,67437.652,6.727,78.125,0.000,0.700,0.200,0.100,1.000,General,0.000,67437.652
 Lights Internal Gains Nominal, BUILDING STORY 2 THERMALZONE 1 STRIPMALL STRIP MALL - TYPE 3 LIGHTS 1,RETAILSTRIPMALL TYPE3_LIGHT_SCH_2013,BUILDING STORY 2 THERMALZONE 1,649.05,55.9,4366.468,6.727,78.125,0.000,0.700,0.200,0.100,1.000,General,0.000,4366.468
 Lights Internal Gains Nominal, BUILDING STORY 2 THERMALZONE 2 STRIPMALL STRIP MALL - TYPE 3 LIGHTS 1,RETAILSTRIPMALL TYPE3_LIGHT_SCH_2013,BUILDING STORY 2 THERMALZONE 2,133.10,11.5,895.392,6.727,78.125,0.000,0.700,0.200,0.100,1.000,General,0.000,895.392
 Lights Internal Gains Nominal, BUILDING STORY 2 THERMALZONE 3 STRIPMALL STRIP MALL - TYPE 3 LIGHTS 1,RETAILSTRIPMALL TYPE3_LIGHT_SCH_2013,BUILDING STORY 2 THERMALZONE 3,649.06,55.9,4366.482,6.727,78.125,0.000,0.700,0.200,0.100,1.000,General,0.000,4366.482
 Lights Internal Gains Nominal, BUILDING STORY 2 THERMALZONE 4 STRIPMALL STRIP MALL - TYPE 3 LIGHTS 1,RETAILSTRIPMALL TYPE3_LIGHT_SCH_2013,BUILDING STORY 2 THERMALZONE 4,133.10,11.5,895.419,6.727,78.125,0.000,0.700,0.200,0.100,1.000,General,0.000,895.419
 Lights Internal Gains Nominal, BUILDING STORY 3 THERMALZONE STRIPMALL STRIP MALL - TYPE 3 ADDITIONAL LIGHTS 2,RETAILSTRIPMALL TYPE3_LIGHT_SCH_2013,BUILDING STORY 3 THERMALZONE,10024.26,863.2,4797.353,0.479,5.558,0.000,0.700,0.200,0.100,1.000,General,0.000,4797.353
 Lights Internal Gains Nominal, BUILDING STORY 3 THERMALZONE 1 STRIPMALL STRIP MALL - TYPE 3 ADDITIONAL LIGHTS 2,RETAILSTRIPMALL TYPE3_LIGHT_SCH_2013,BUILDING STORY 3 THERMALZONE 1,649.05,55.9,310.620,0.479,5.558,0.000,0.700,0.200,0.100,1.000,General,0.000,310.620
 Lights Internal Gains Nominal, BUILDING STORY 3 THERMALZONE 2 STRIPMALL STRIP MALL - TYPE 3 ADDITIONAL LIGHTS 2,RETAILSTRIPMALL TYPE3_LIGHT_SCH_2013,BUILDING STORY 3 THERMALZONE 2,133.10,11.5,63.696,0.479,5.558,0.000,0.700,0.200,0.100,1.000,General,0.000,63.696
 Lights Internal Gains Nominal, BUILDING STORY 3 THERMALZONE 3 STRIPMALL STRIP MALL - TYPE 3 ADDITIONAL LIGHTS 2,RETAILSTRIPMALL TYPE3_LIGHT_SCH_2013,BUILDING STORY 3 THERMALZONE 3,649.06,55.9,310.621,0.479,5.558,0.000,0.700,0.200,0.100,1.000,General,0.000,310.621
 Lights Internal Gains Nominal, BUILDING STORY 3 THERMALZONE 4 STRIPMALL STRIP MALL - TYPE 3 ADDITIONAL LIGHTS 2,RETAILSTRIPMALL TYPE3_LIGHT_SCH_2013,BUILDING STORY 3 THERMALZONE 4,133.10,11.5,63.698,0.479,5.558,0.000,0.700,0.200,0.100,1.000,General,0.000,63.698
 Lights Internal Gains Nominal, BUILDING STORY 3 THERMALZONE STRIPMALL STRIP MALL - TYPE 3 LIGHTS 2,RETAILSTRIPMALL TYPE3_LIGHT_SCH_2013,BUILDING STORY 3 THERMALZONE,10024.26,863.2,134875.303,13.455,156.250,0.000,0.700,0.200,0.100,1.000,General,0.000,134875.303
 Lights Internal Gains Nominal, BUILDING STORY 3 THERMALZONE 1 STRIPMALL STRIP MALL - TYPE 3 LIGHTS 2,RETAILSTRIPMALL TYPE3_LIGHT_SCH_2013,BUILDING STORY 3 THERMALZONE 1,649.05,55.9,8732.937,13.455,156.250,0.000,0.700,0.200,0.100,1.000,General,0.000,8732.937
 Lights Internal Gains Nominal, BUILDING STORY 3 THERMALZONE 2 STRIPMALL STRIP MALL - TYPE 3 LIGHTS 2,RETAILSTRIPMALL TYPE3_LIGHT_SCH_2013,BUILDING STORY 3 THERMALZONE 2,133.10,11.5,1790.783,13.455,156.250,0.000,0.700,0.200,0.100,1.000,General,0.000,1790.783
 Lights Internal Gains Nominal, BUILDING STORY 3 THERMALZONE 3 STRIPMALL STRIP MALL - TYPE 3 LIGHTS 2,RETAILSTRIPMALL TYPE3_LIGHT_SCH_2013,BUILDING STORY 3 THERMALZONE 3,649.06,55.9,8732.963,13.455,156.250,0.000,0.700,0.200,0.100,1.000,General,0.000,8732.963
 Lights Internal Gains Nominal, BUILDING STORY 3 THERMALZONE 4 STRIPMALL STRIP MALL - TYPE 3 LIGHTS 2,RETAILSTRIPMALL TYPE3_LIGHT_SCH_2013,BUILDING STORY 3 THERMALZONE 4,133.10,11.5,1790.838,13.455,156.250,0.000,0.700,0.200,0.100,1.000,General,0.000,1790.838
! <ElectricEquipment Internal Gains Nominal>,Name,Schedule Name,Zone Name,Zone Floor Area {m2},# Zone Occupants,Equipment Level {W},Equipment/Floor Area {W/m2},Equipment per person {W/person},Fraction Latent,Fraction Radiant,Fraction Lost,Fraction Convected,End-Use SubCategory,Nominal Minimum Equipment Level {W},Nominal Maximum Equipment Level {W}
 ElectricEquipment Internal Gains Nominal, BUILDING STORY 1 THERMALZONE 9 ELEVATOR FANS,ELEVATOR SCHEDULE 3,BUILDING STORY 1 THERMALZONE,10024.26,863.2,240.883,2.403E-002,0.279,0.000,0.500,0.000,0.500,Elevators,0.000,240.883
 ElectricEquipment Internal Gains Nominal, BUILDING STORY 1 THERMALZONE 1 9 ELEVATOR FANS,ELEVATOR SCHEDULE 3,BUILDING STORY 1 THERMALZONE 1,649.05,55.9,15.597,2.403E-002,0.279,0.000,0.500,0.000,0.500,Elevators,0.000,15.597
 ElectricEquipment Internal Gains Nominal, BUILDING STORY 1 THERMALZONE 2 9 ELEVATOR FANS,ELEVATOR SCHEDULE 3,BUILDING STORY 1 THERMALZONE 2,133.10,11.5,3.198,2.403E-002,0.279,0.000,0.500,0.000,0.500,Elevators,0.000,3.198
 ElectricEquipment Internal Gains Nominal, BUILDING STORY 1 THERMALZONE 3 9 ELEVATOR FANS,ELEVATOR SCHEDULE 3,BUILDING STORY 1 THERMALZONE 3,649.06,55.9,15.597,2.403E-002,0.279,0.000,0.500,0.000,0.500,Elevators,0.000,15.597
 ElectricEquipment Internal Gains Nominal, BUILDING STORY 1 THERMALZONE 4 9 ELEVATOR FANS,ELEVATOR SCHEDULE 3,BUILDING STORY 1 THERMALZONE 4,133.10,11.5,3.198,2.403E-002,0.279,0.000,0.500,0.000,0.500,Elevators,0.000,3.198
 ElectricEquipment Internal Gains Nominal, BUILDING STORY 1 THERMALZONE 9 ELEVATOR LIFT MOTORS,ELEVATOR SCHEDULE 1,BUILDING STORY 1 THERMALZONE,10024.26,863.2,124925.247,12.462,144.723,0.000,0.000,1.000,0.000,Elevators,0.000,124925.247
 ElectricEquipment Internal Gains Nominal, BUILDING STORY 1 THERMALZONE 1 9 ELEVATOR LIFT MOTORS,ELEVATOR SCHEDULE 1,BUILDING STORY 1 THERMALZONE 1,649.05,55.9,8088.688,12.462,144.723,0.000,0.000,1.000,0.000,Elevators,0.000,8088.688
 ElectricEquipment Internal Gains Nominal, BUILDING STORY 1 THERMALZONE 2 9 ELEVATOR LIFT MOTORS,ELEVATOR SCHEDULE 1,BUILDING STORY 1 THERMALZONE 2,133.10,11.5,1658.673,12.462,144.723,0.000,0.000,1.000,0.000,Elevators,0.000,1658.673
 ElectricEquipment Internal Gains Nominal, BUILDING STORY 1 THERMALZONE 3 9 ELEVATOR LIFT MOTORS,ELEVATOR SCHEDULE 1,BUILDING STORY 1 THERMALZONE 3,649.06,55.9,8088.713,12.462,144.723,0.000,0.000,1.000,0.000,Elevators,0.000,8088.713
 ElectricEquipment Internal Gains Nominal, BUILDING STORY 1 THERMALZONE 4 9 ELEVATOR LIFT MOTORS,ELEVATOR SCHEDULE 1,BUILDING STORY 1 THERMALZONE 4,133.10,11.5,1658.723,12.462,144.723,0.000,0.000,1.000,0.000,Elevators,0.000,1658.723
 ElectricEquipment Internal Gains Nominal, BUILDING STORY 1 THERMALZONE 9 ELEVATOR LIGHTS,ELEVATOR SCHEDULE 2,BUILDING STORY 1 THERMALZONE,10024.26,863.2,251.707,2.511E-002,0.292,0.000,0.500,0.000,0.500,Elevators,0.000,251.707
 ElectricEquipment Internal Gains Nominal, BUILDING STORY 1 THERMALZONE 1 9 ELEVATOR LIGHTS,ELEVATOR SCHEDULE 2,BUILDING STORY 1 THERMALZONE 1,649.05,55.9,16.298,2.511E-002,0.292,0.000,0.500,0.000,0.500,Elevators,0.000,16.298
 ElectricEquipment Internal Gains Nominal, BUILDING STORY 1 THERMALZONE 2 9 ELEVATOR LIGHTS,ELEVATOR SCHEDULE 2,BUILDING STORY 1 THERMALZONE 2,133.10,11.5,3.342,2.511E-002,0.292,0.000,0.500,0.000,0.500,Elevators,0.000,3.342
 ElectricEquipment Internal Gains Nominal, BUILDING STORY 1 THERMALZONE 3 9 ELEVATOR LIGHTS,ELEVATOR SCHEDULE 2,BUILDING STORY 1 THERMALZONE 3,649.06,55.9,16.298,2.511E-002,0.292,0.000,0.500,0.000,0.500,Elevators,0.000,16.298
 ElectricEquipment Internal Gains Nominal, BUILDING STORY 1 THERMALZONE 4 9 ELEVATOR LIGHTS,ELEVATOR SCHEDULE 2,BUILDING STORY 1 THERMALZONE 4,133.10,11.5,3.342,2.511E-002,0.292,0.000,0.500,0.000,0.500,Elevators,0.000,3.342
 ElectricEquipment Internal Gains Nominal, BUILDING STORY 1 THERMALZONE STRIPMALL STRIP MALL - TYPE 1 ELEC EQUIP 1,RETAILSTRIPMALL TYPE1_EQUIP_SCH,BUILDING STORY 1 THERMALZONE,10024.26,863.2,32370.073,3.229,37.500,0.000,0.500,0.000,0.500,General,0.000,32370.073
 ElectricEquipment Internal Gains Nominal, BUILDING STORY 1 THERMALZONE 1 STRIPMALL STRIP MALL - TYPE 1 ELEC EQUIP 1,RETAILSTRIPMALL TYPE1_EQUIP_SCH,BUILDING STORY 1 THERMALZONE 1,649.05,55.9,2095.905,3.229,37.500,0.000,0.500,0.000,0.500,General,0.000,2095.905
 ElectricEquipment Internal Gains Nominal, BUILDING STORY 1 THERMALZONE 2 STRIPMALL STRIP MALL - TYPE 1 ELEC EQUIP 1,RETAILSTRIPMALL TYPE1_EQUIP_SCH,BUILDING STORY 1 THERMALZONE 2,133.10,11.5,429.788,3.229,37.500,0.000,0.500,0.000,0.500,General,0.000,429.788
 ElectricEquipment Internal Gains Nominal, BUILDING STORY 1 THERMALZONE 3 STRIPMALL STRIP MALL - TYPE 1 ELEC EQUIP 1,RETAILSTRIPMALL TYPE1_EQUIP_SCH,BUILDING STORY 1 THERMALZONE 3,649.06,55.9,2095.911,3.229,37.500,0.000,0.500,0.000,0.500,General,0.000,2095.911
 ElectricEquipment Internal Gains Nominal, BUILDING STORY 1 THERMALZONE 4 STRIPMALL STRIP MALL - TYPE 1 ELEC EQUIP 1,RETAILSTRIPMALL TYPE1_EQUIP_SCH,BUILDING STORY 1 THERMALZONE 4,133.10,11.5,429.801,3.229,37.500,0.000,0.500,0.000,0.500,General,0.000,429.801
 ElectricEquipment Internal Gains Nominal, BUILDING STORY 1 THERMALZONE STRIPMALL STRIP MALL - TYPE 2 ELEC EQUIP 1,RETAILSTRIPMALL TYPE2_EQUIP_SCH,BUILDING STORY 1 THERMALZONE,10024.26,863.2,10790.024,1.076,12.500,0.000,0.500,0.000,0.500,General,0.000,10790.024
 ElectricEquipment Internal Gains Nominal, BUILDING STORY 1 THERMALZONE 1 STRIPMALL STRIP MALL - TYPE 2 ELEC EQUIP 1,RETAILSTRIPMALL TYPE2_EQUIP_SCH,BUILDING STORY 1 THERMALZONE 1,649.05,55.9,698.635,1.076,12.500,0.000,0.500,0.000,0.500,General,0.000,698.635
 ElectricEquipment Internal Gains Nominal, BUILDING STORY 1 THERMALZONE 2 STRIPMALL STRIP MALL - TYPE 2 ELEC EQUIP 1,RETAILSTRIPMALL TYPE2_EQUIP_SCH,BUILDING STORY 1 THERMALZONE 2,133.10,11.5,143.263,1.076,12.500,0.000,0.500,0.000,0.500,General,0.000,143.263
 ElectricEquipment Internal Gains Nominal, BUILDING STORY 1 THERMALZONE 3 STRIPMALL STRIP MALL - TYPE 2 ELEC EQUIP 1,RETAILSTRIPMALL TYPE2_EQUIP_SCH,BUILDING STORY 1 THERMALZONE 3,649.06,55.9,698.637,1.076,12.500,0.000,0.500,0.000,0.500,General,0.000,698.637
 ElectricEquipment Internal Gains Nominal, BUILDING STORY 1 THERMALZONE 4 STRIPMALL STRIP MALL - TYPE 2 ELEC EQUIP 1,RETAILSTRIPMALL TYPE2_EQUIP_SCH,BUILDING STORY 1 THERMALZONE 4,133.10,11.5,143.267,1.076,12.500,0.000,0.500,0.000,0.500,General,0.000,143.267
 ElectricEquipment Internal Gains Nominal, BUILDING STORY 2 THERMALZONE STRIPMALL STRIP MALL - TYPE 2 ELEC EQUIP 2,RETAILSTRIPMALL TYPE2_EQUIP_SCH,BUILDING STORY 2 THERMALZONE,10024.26,863.2,21580.049,2.153,25.000,0.000,0.500,0.000,0.500,General,0.000,21580.049
 ElectricEquipment Internal Gains Nominal, BUILDING STORY 2 THERMALZONE 1 STRIPMALL STRIP MALL - TYPE 2 ELEC EQUIP 2,RETAILSTRIPMALL TYPE2_EQUIP_SCH,BUILDING STORY 2 THERMALZONE 1,649.05,55.9,1397.270,2.153,25.000,0.000,0.500,0.000,0.500,General,0.000,1397.270
 ElectricEquipment Internal Gains Nominal, BUILDING STORY 2 THERMALZONE 2 STRIPMALL STRIP MALL - TYPE 2 ELEC EQUIP 2,RETAILSTRIPMALL TYPE2_EQUIP_SCH,BUILDING STORY 2 THERMALZONE 2,133.10,11.5,286.525,2.153,25.000,0.000,0.500,0.000,0.500,General,0.000,286.525
 ElectricEquipment Internal Gains Nominal, BUILDING STORY 2 THERMALZONE 3 STRIPMALL STRIP MALL - TYPE 2 ELEC EQUIP 2,RETAILSTRIPMALL TYPE2_EQUIP_SCH,BUILDING STORY 2 THERMALZONE 3,649.06,55.9,1397.274,2.153,25.000,0.000,0.500,0.000,0.500,General,0.000,1397.274
 ElectricEquipment Internal Gains Nominal, BUILDING STORY 2 THERMALZONE 4 STRIPMALL STRIP MALL - TYPE 2 ELEC EQUIP 2,RETAILSTRIPMALL TYPE2_EQUIP_SCH,BUILDING STORY 2 THERMALZONE 4,133.10,11.5,286.534,2.153,25.000,0.000,0.500,0.000,0.500,General,0.000,286.534
 ElectricEquipment Internal Gains Nominal, BUILDING STORY 2 THERMALZONE STRIPMALL STRIP MALL - TYPE 3 ELEC EQUIP 1,RETAILSTRIPMALL TYPE3_EQUIP_SCH,BUILDING STORY 2 THERMALZONE,10024.26,863.2,21580.049,2.153,25.000,0.000,0.500,0.000,0.500,General,0.000,21580.049
 ElectricEquipment Internal Gains Nominal, BUILDING STORY 2 THERMALZONE 1 STRIPMALL STRIP MALL - TYPE 3 ELEC EQUIP 1,RETAILSTRIPMALL TYPE3_EQUIP_SCH,BUILDING STORY 2 THERMALZONE 1,649.05,55.9,1397.270,2.153,25.000,0.000,0.500,0.000,0.500,General,0.000,1397.270
 ElectricEquipment Internal Gains Nominal, BUILDING STORY 2 THERMALZONE 2 STRIPMALL STRIP MALL - TYPE 3 ELEC EQUIP 1,RETAILSTRIPMALL TYPE3_EQUIP_SCH,BUILDING STORY 2 THERMALZONE 2,133.10,11.5,286.525,2.153,25.000,0.000,0.500,0.000,0.500,General,0.000,286.525
 ElectricEquipment Internal Gains Nominal, BUILDING STORY 2 THERMALZONE 3 STRIPMALL STRIP MALL - TYPE 3 ELEC EQUIP 1,RETAILSTRIPMALL TYPE3_EQUIP_SCH,BUILDING STORY 2 THERMALZONE 3,649.06,55.9,1397.274,2.153,25.000,0.000,0.500,0.000,0.500,General,0.000,1397.274
 ElectricEquipment Internal Gains Nominal, BUILDING STORY 2 THERMALZONE 4 STRIPMALL STRIP MALL - TYPE 3 ELEC EQUIP 1,RETAILSTRIPMALL TYPE3_EQUIP_SCH,BUILDING STORY 2 THERMALZONE 4,133.10,11.5,286.534,2.153,25.000,0.000,0.500,0.000,0.500,General,0.000,286.534
 ElectricEquipment Internal Gains Nominal, BUILDING STORY 3 THERMALZONE STRIPMALL STRIP MALL - TYPE 3 ELEC EQUIP 2,RETAILSTRIPMALL TYPE3_EQUIP_SCH,BUILDING STORY 3 THERMALZONE,10024.26,863.2,43160.097,4.306,50.000,0.000,0.500,0.000,0.500,General,0.000,43160.097
 ElectricEquipment Internal Gains Nominal, BUILDING STORY 3 THERMALZONE 1 STRIPMALL STRIP MALL - TYPE 3 ELEC EQUIP 2,RETAILSTRIPMALL TYPE3_EQUIP_SCH,BUILDING STORY 3 THERMALZONE 1,649.05,55.9,2794.540,4.306,50.000,0.000,0.500,0.000,0.500,General,0.000,2794.540
 ElectricEquipment Internal Gains Nominal, BUILDING STORY 3 THERMALZONE 2 STRIPMALL STRIP MALL - TYPE 3 ELEC EQUIP 2,RETAILSTRIPMALL TYPE3_EQUIP_SCH,BUILDING STORY 3 THERMALZONE 2,133.10,11.5,573.051,4.306,50.000,0.000,0.500,0.000,0.500,General,0.000,573.051
 ElectricEquipment Internal Gains Nominal, BUILDING STORY 3 THERMALZONE 3 STRIPMALL STRIP MALL - TYPE 3 ELEC EQUIP 2,RETAILSTRIPMALL TYPE3_EQUIP_SCH,BUILDING STORY 3 THERMALZONE 3,649.06,55.9,2794.548,4.306,50.000,0.000,0.500,0.000,0.500,General,0.000,2794.548
 ElectricEquipment Internal Gains Nominal, BUILDING STORY 3 THERMALZONE 4 STRIPMALL STRIP MALL - TYPE 3 ELEC EQUIP 2,RETAILSTRIPMALL TYPE3_EQUIP_SCH,BUILDING STORY 3 THERMALZONE 4,133.10,11.5,573.068,4.306,50.000,0.000,0.500,0.000,0.500,General,0.000,573.068
! <Shadowing/Sun Position Calculations Annual Simulations>, Shading Calculation Method, Shading Calculation Update Frequency Method, Shading Calculation Update Frequency {days}, Maximum Figures in Shadow Overlap Calculations {}, Polygon Clipping Algorithm, Pixel Counting Resolution, Sky Diffuse Modeling Algorithm, Output External Shading Calculation Results, Disable Self-Shading Within Shading Zone Groups, Disable Self-Shading From Shading Zone Groups to Other Zones
Shadowing/Sun Position Calculations Annual Simulations,PolygonClipping,Periodic,20,15000,SutherlandHodgman,512,SimpleSkyDiffuseModeling,No,No,No
! <Water Heater Information>,Type,Name,Volume {m3},Maximum Capacity {W},Standard Rated Recovery Efficiency, Standard Rated Energy Factor
! <ZoneInfiltration Airflow Stats Nominal>,Name,Schedule Name,Zone Name, Zone Floor Area {m2}, # Zone Occupants,Design Volume Flow Rate {m3/s},Volume Flow Rate/Floor Area {m3/s-m2},Volume Flow Rate/Exterior Surface Area {m3/s-m2},ACH - Air Changes per Hour,Equation A - Constant Term Coefficient {},Equation B - Temperature Term Coefficient {1/C},Equation C - Velocity Term Coefficient {s/m}, Equation D - Velocity Squared Term Coefficient {s2/m2}
 ZoneInfiltration Airflow Stats Nominal, BUILDING STORY 1 THERMALZONE STRIPMALL STRIP MALL - TYPE 1 A  - STORY GROUND INFILTRATION,ALWAYS ON DISCRETE,BUILDING STORY 1 THERMALZONE,10024.26,863.2,0.000,0.000,N/A,0.000,0.000,0.000,0.224,0.000
 ZoneInfiltration Airflow Stats Nominal, BUILDING STORY 1 THERMALZONE 1 STRIPMALL STRIP MALL - TYPE 1 A  - STORY GROUND INFILTRATION,ALWAYS ON DISCRETE,BUILDING STORY 1 THERMALZONE 1,649.05,55.9,0.139,2.139E-004,1.660E-004,0.214,0.000,0.000,0.224,0.000
 ZoneInfiltration Airflow Stats Nominal, BUILDING STORY 1 THERMALZONE 2 STRIPMALL STRIP MALL - TYPE 1 A  - STORY GROUND INFILTRATION,ALWAYS ON DISCRETE,BUILDING STORY 1 THERMALZONE 2,133.10,11.5,2.982E-002,2.240E-004,1.660E-004,0.224,0.000,0.000,0.224,0.000
 ZoneInfiltration Airflow Stats Nominal, BUILDING STORY 1 THERMALZONE 3 STRIPMALL STRIP MALL - TYPE 1 A  - STORY GROUND INFILTRATION,ALWAYS ON DISCRETE,BUILDING STORY 1 THERMALZONE 3,649.06,55.9,0.139,2.139E-004,1.660E-004,0.214,0.000,0.000,0.224,0.000
 ZoneInfiltration Airflow Stats Nominal, BUILDING STORY 1 THERMALZONE 4 STRIPMALL STRIP MALL - TYPE 1 A  - STORY GROUND INFILTRATION,ALWAYS ON DISCRETE,BUILDING STORY 1 THERMALZONE 4,133.10,11.5,2.982E-002,2.240E-004,1.660E-004,0.224,0.000,0.000,0.224,0.000
 ZoneInfiltration Airflow Stats Nominal, BUILDING STORY 1 THERMALZONE STRIPMALL STRIP MALL - TYPE 1 A END_A - STORY GROUND INFILTRATION,ALWAYS ON DISCRETE,BUILDING STORY 1 THERMALZONE,10024.26,863.2,0.000,0.000,N/A,0.000,0.000,0.000,0.224,0.000
 ZoneInfiltration Airflow Stats Nominal, BUILDING STORY 1 THERMALZONE 1 STRIPMALL STRIP MALL - TYPE 1 A END_A - STORY GROUND INFILTRATION,ALWAYS ON DISCRETE,BUILDING STORY 1 THERMALZONE 1,649.05,55.9,8.090E-003,1.246E-005,9.674E-006,1.246E-002,0.000,0.000,0.224,0.000
 ZoneInfiltration Airflow Stats Nominal, BUILDING STORY 1 THERMALZONE 2 STRIPMALL STRIP MALL - TYPE 1 A END_A - STORY GROUND INFILTRATION,ALWAYS ON DISCRETE,BUILDING STORY 1 THERMALZONE 2,133.10,11.5,1.737E-003,1.305E-005,9.674E-006,1.305E-002,0.000,0.000,0.224,0.000
 ZoneInfiltration Airflow Stats Nominal, BUILDING STORY 1 THERMALZONE 3 STRIPMALL STRIP MALL - TYPE 1 A END_A - STORY GROUND INFILTRATION,ALWAYS ON DISCRETE,BUILDING STORY 1 THERMALZONE 3,649.06,55.9,8.090E-003,1.246E-005,9.674E-006,1.246E-002,0.000,0.000,0.224,0.000
 ZoneInfiltration Airflow Stats Nominal, BUILDING STORY 1 THERMALZONE 4 STRIPMALL STRIP MALL - TYPE 1 A END_A - STORY GROUND INFILTRATION,ALWAYS ON DISCRETE,BUILDING STORY 1 THERMALZONE 4,133.10,11.5,1.737E-003,1.305E-005,9.674E-006,1.305E-002,0.000,0.000,0.224,0.000
 ZoneInfiltration Airflow Stats Nominal, BUILDING STORY 1 THERMALZONE STRIPMALL STRIP MALL - TYPE 1 B END_A - STORY GROUND INFILTRATION,ALWAYS ON DISCRETE,BUILDING STORY 1 THERMALZONE,10024.26,863.2,0.000,0.000,N/A,0.000,0.000,0.000,0.224,0.000
 ZoneInfiltration Airflow Stats Nominal, BUILDING STORY 1 THERMALZONE 1 STRIPMALL STRIP MALL - TYPE 1 B END_A - STORY GROUND INFILTRATION,ALWAYS ON DISCRETE,BUILDING STORY 1 THERMALZONE 1,649.05,55.9,3.954E-002,6.092E-005,4.728E-005,6.092E-002,0.000,0.000,0.224,0.000
 ZoneInfiltration Airflow Stats Nominal, BUILDING STORY 1 THERMALZONE 2 STRIPMALL STRIP MALL - TYPE 1 B END_A - STORY GROUND INFILTRATION,ALWAYS ON DISCRETE,BUILDING STORY 1 THERMALZONE 2,133.10,11.5,8.491E-003,6.380E-005,4.728E-005,6.380E-002,0.000,0.000,0.224,0.000
 ZoneInfiltration Airflow Stats Nominal, BUILDING STORY 1 THERMALZONE 3 STRIPMALL STRIP MALL - TYPE 1 B END_A - STORY GROUND INFILTRATION,ALWAYS ON DISCRETE,BUILDING STORY 1 THERMALZONE 3,649.06,55.9,3.954E-002,6.092E-005,4.728E-005,6.092E-002,0.000,0.000,0.224,0.000
 ZoneInfiltration Airflow Stats Nominal, BUILDING STORY 1 THERMALZONE 4 STRIPMALL STRIP MALL - TYPE 1 B END_A - STORY GROUND INFILTRATION,ALWAYS ON DISCRETE,BUILDING STORY 1 THERMALZONE 4,133.10,11.5,8.492E-003,6.380E-005,4.728E-005,6.380E-002,0.000,0.000,0.224,0.000
 ZoneInfiltration Airflow Stats Nominal, BUILDING STORY 1 THERMALZONE STRIPMALL STRIP MALL - TYPE 1 C  - STORY GROUND INFILTRATION,ALWAYS ON DISCRETE,BUILDING STORY 1 THERMALZONE,10024.26,863.2,0.000,0.000,N/A,0.000,0.000,0.000,0.224,0.000
 ZoneInfiltration Airflow Stats Nominal, BUILDING STORY 1 THERMALZONE 1 STRIPMALL STRIP MALL - TYPE 1 C  - STORY GROUND INFILTRATION,ALWAYS ON DISCRETE,BUILDING STORY 1 THERMALZONE 1,649.05,55.9,0.139,2.139E-004,1.660E-004,0.214,0.000,0.000,0.224,0.000
 ZoneInfiltration Airflow Stats Nominal, BUILDING STORY 1 THERMALZONE 2 STRIPMALL STRIP MALL - TYPE 1 C  - STORY GROUND INFILTRATION,ALWAYS ON DISCRETE,BUILDING STORY 1 THERMALZONE 2,133.10,11.5,2.982E-002,2.240E-004,1.660E-004,0.224,0.000,0.000,0.224,0.000
 ZoneInfiltration Airflow Stats Nominal, BUILDING STORY 1 THERMALZONE 3 STRIPMALL STRIP MALL - TYPE 1 C  - STORY GROUND INFILTRATION,ALWAYS ON DISCRETE,BUILDING STORY 1 THERMALZONE 3,649.06,55.9,0.139,2.139E-004,1.660E-004,0.214,0.000,0.000,0.224,0.000
 ZoneInfiltration Airflow Stats Nominal, BUILDING STORY 1 THERMALZONE 4 STRIPMALL STRIP MALL - TYPE 1 C  - STORY GROUND INFILTRATION,ALWAYS ON DISCRETE,BUILDING STORY 1 THERMALZONE 4,133.10,11.5,2.982E-002,2.240E-004,1.660E-004,0.224,0.000,0.000,0.224,0.000
 ZoneInfiltration Airflow Stats Nominal, BUILDING STORY 1 THERMALZONE STRIPMALL STRIP MALL - TYPE 1 C END_A - STORY GROUND INFILTRATION,ALWAYS ON DISCRETE,BUILDING STORY 1 THERMALZONE,10024.26,863.2,0.000,0.000,N/A,0.000,0.000,0.000,0.224,0.000
 ZoneInfiltration Airflow Stats Nominal, BUILDING STORY 1 THERMALZONE 1 STRIPMALL STRIP MALL - TYPE 1 C END_A - STORY GROUND INFILTRATION,ALWAYS ON DISCRETE,BUILDING STORY 1 THERMALZONE 1,649.05,55.9,8.090E-003,1.246E-005,9.674E-006,1.246E-002,0.000,0.000,0.224,0.000
 ZoneInfiltration Airflow Stats Nominal, BUILDING STORY 1 THERMALZONE 2 STRIPMALL STRIP MALL - TYPE 1 C END_A - STORY GROUND INFILTRATION,ALWAYS ON DISCRETE,BUILDING STORY 1 THERMALZONE 2,133.10,11.5,1.737E-003,1.305E-005,9.674E-006,1.305E-002,0.000,0.000,0.224,0.000
 ZoneInfiltration Airflow Stats Nominal, BUILDING STORY 1 THERMALZONE 3 STRIPMALL STRIP MALL - TYPE 1 C END_A - STORY GROUND INFILTRATION,ALWAYS ON DISCRETE,BUILDING STORY 1 THERMALZONE 3,649.06,55.9,8.090E-003,1.246E-005,9.674E-006,1.246E-002,0.000,0.000,0.224,0.000
 ZoneInfiltration Airflow Stats Nominal, BUILDING STORY 1 THERMALZONE 4 STRIPMALL STRIP MALL - TYPE 1 C END_A - STORY GROUND INFILTRATION,ALWAYS ON DISCRETE,BUILDING STORY 1 THERMALZONE 4,133.10,11.5,1.737E-003,1.305E-005,9.674E-006,1.305E-002,0.000,0.000,0.224,0.000
 ZoneInfiltration Airflow Stats Nominal, BUILDING STORY 1 THERMALZONE STRIPMALL STRIP MALL - TYPE 2 A  - STORY GROUND INFILTRATION,ALWAYS ON DISCRETE,BUILDING STORY 1 THERMALZONE,10024.26,863.2,0.000,0.000,N/A,0.000,0.000,0.000,0.224,0.000
 ZoneInfiltration Airflow Stats Nominal, BUILDING STORY 1 THERMALZONE 1 STRIPMALL STRIP MALL - TYPE 2 A  - STORY GROUND INFILTRATION,ALWAYS ON DISCRETE,BUILDING STORY 1 THERMALZONE 1,649.05,55.9,4.359E-002,6.716E-005,5.212E-005,6.716E-002,0.000,0.000,0.224,0.000
 ZoneInfiltration Airflow Stats Nominal, BUILDING STORY 1 THERMALZONE 2 STRIPMALL STRIP MALL - TYPE 2 A  - STORY GROUND INFILTRATION,ALWAYS ON DISCRETE,BUILDING STORY 1 THERMALZONE 2,133.10,11.5,9.360E-003,7.033E-005,5.212E-005,7.033E-002,0.000,0.000,0.224,0.000
 ZoneInfiltration Airflow Stats Nominal, BUILDING STORY 1 THERMALZONE 3 STRIPMALL STRIP MALL - TYPE 2 A  - STORY GROUND INFILTRATION,ALWAYS ON DISCRETE,BUILDING STORY 1 THERMALZONE 3,649.06,55.9,4.359E-002,6.716E-005,5.212E-005,6.716E-002,0.000,0.000,0.224,0.000
 ZoneInfiltration Airflow Stats Nominal, BUILDING STORY 1 THERMALZONE 4 STRIPMALL STRIP MALL - TYPE 2 A  - STORY GROUND INFILTRATION,ALWAYS ON DISCRETE,BUILDING STORY 1 THERMALZONE 4,133.10,11.5,9.360E-003,7.033E-005,5.212E-005,7.033E-002,0.000,0.000,0.224,0.000
 ZoneInfiltration Airflow Stats Nominal, BUILDING STORY 1 THERMALZONE STRIPMALL STRIP MALL - TYPE 2 A END_B - STORY GROUND INFILTRATION,ALWAYS ON DISCRETE,BUILDING STORY 1 THERMALZONE,10024.26,863.2,0.000,0.000,N/A,0.000,0.000,0.000,0.224,0.000
 ZoneInfiltration Airflow Stats Nominal, BUILDING STORY 1 THERMALZONE 1 STRIPMALL STRIP MALL - TYPE 2 A END_B - STORY GROUND INFILTRATION,ALWAYS ON DISCRETE,BUILDING STORY 1 THERMALZONE 1,649.05,55.9,8.090E-003,1.246E-005,9.674E-006,1.246E-002,0.000,0.000,0.224,0.000
 ZoneInfiltration Airflow Stats Nominal, BUILDING STORY 1 THERMALZONE 2 STRIPMALL STRIP MALL - TYPE 2 A END_B - STORY GROUND INFILTRATION,ALWAYS ON DISCRETE,BUILDING STORY 1 THERMALZONE 2,133.10,11.5,1.737E-003,1.305E-005,9.674E-006,1.305E-002,0.000,0.000,0.224,0.000
 ZoneInfiltration Airflow Stats Nominal, BUILDING STORY 1 THERMALZONE 3 STRIPMALL STRIP MALL - TYPE 2 A END_B - STORY GROUND INFILTRATION,ALWAYS ON DISCRETE,BUILDING STORY 1 THERMALZONE 3,649.06,55.9,8.090E-003,1.246E-005,9.674E-006,1.246E-002,0.000,0.000,0.224,0.000
 ZoneInfiltration Airflow Stats Nominal, BUILDING STORY 1 THERMALZONE 4 STRIPMALL STRIP MALL - TYPE 2 A END_B - STORY GROUND INFILTRATION,ALWAYS ON DISCRETE,BUILDING STORY 1 THERMALZONE 4,133.10,11.5,1.737E-003,1.305E-005,9.674E-006,1.305E-002,0.000,0.000,0.224,0.000
 ZoneInfiltration Airflow Stats Nominal, BUILDING STORY 1 THERMALZONE STRIPMALL STRIP MALL - TYPE 2 B END_B - STORY GROUND INFILTRATION,ALWAYS ON DISCRETE,BUILDING STORY 1 THERMALZONE,10024.26,863.2,0.000,0.000,N/A,0.000,0.000,0.000,0.224,0.000
 ZoneInfiltration Airflow Stats Nominal, BUILDING STORY 1 THERMALZONE 1 STRIPMALL STRIP MALL - TYPE 2 B END_B - STORY GROUND INFILTRATION,ALWAYS ON DISCRETE,BUILDING STORY 1 THERMALZONE 1,649.05,55.9,3.954E-002,6.092E-005,4.728E-005,6.092E-002,0.000,0.000,0.224,0.000
 ZoneInfiltration Airflow Stats Nominal, BUILDING STORY 1 THERMALZONE 2 STRIPMALL STRIP MALL - TYPE 2 B END_B - STORY GROUND INFILTRATION,ALWAYS ON DISCRETE,BUILDING STORY 1 THERMALZONE 2,133.10,11.5,8.491E-003,6.380E-005,4.728E-005,6.380E-002,0.000,0.000,0.224,0.000
 ZoneInfiltration Airflow Stats Nominal, BUILDING STORY 1 THERMALZONE 3 STRIPMALL STRIP MALL - TYPE 2 B END_B - STORY GROUND INFILTRATION,ALWAYS ON DISCRETE,BUILDING STORY 1 THERMALZONE 3,649.06,55.9,3.954E-002,6.092E-005,4.728E-005,6.092E-002,0.000,0.000,0.224,0.000
 ZoneInfiltration Airflow Stats Nominal, BUILDING STORY 1 THERMALZONE 4 STRIPMALL STRIP MALL - TYPE 2 B END_B - STORY GROUND INFILTRATION,ALWAYS ON DISCRETE,BUILDING STORY 1 THERMALZONE 4,133.10,11.5,8.492E-003,6.380E-005,4.728E-005,6.380E-002,0.000,0.000,0.224,0.000
 ZoneInfiltration Airflow Stats Nominal, BUILDING STORY 1 THERMALZONE STRIPMALL STRIP MALL - TYPE 2 C  - STORY GROUND INFILTRATION,ALWAYS ON DISCRETE,BUILDING STORY 1 THERMALZONE,10024.26,863.2,0.000,0.000,N/A,0.000,0.000,0.000,0.224,0.000
 ZoneInfiltration Airflow Stats Nominal, BUILDING STORY 1 THERMALZONE 1 STRIPMALL STRIP MALL - TYPE 2 C  - STORY GROUND INFILTRATION,ALWAYS ON DISCRETE,BUILDING STORY 1 THERMALZONE 1,649.05,55.9,4.359E-002,6.716E-005,5.212E-005,6.716E-002,0.000,0.000,0.224,0.000
 ZoneInfiltration Airflow Stats Nominal, BUILDING STORY 1 THERMALZONE 2 STRIPMALL STRIP MALL - TYPE 2 C  - STORY GROUND INFILTRATION,ALWAYS ON DISCRETE,BUILDING STORY 1 THERMALZONE 2,133.10,11.5,9.360E-003,7.033E-005,5.212E-005,7.033E-002,0.000,0.000,0.224,0.000
 ZoneInfiltration Airflow Stats Nominal, BUILDING STORY 1 THERMALZONE 3 STRIPMALL STRIP MALL - TYPE 2 C  - STORY GROUND INFILTRATION,ALWAYS ON DISCRETE,BUILDING STORY 1 THERMALZONE 3,649.06,55.9,4.359E-002,6.716E-005,5.212E-005,6.716E-002,0.000,0.000,0.224,0.000
 ZoneInfiltration Airflow Stats Nominal, BUILDING STORY 1 THERMALZONE 4 STRIPMALL STRIP MALL - TYPE 2 C  - STORY GROUND INFILTRATION,ALWAYS ON DISCRETE,BUILDING STORY 1 THERMALZONE 4,133.10,11.5,9.360E-003,7.033E-005,5.212E-005,7.033E-002,0.000,0.000,0.224,0.000
 ZoneInfiltration Airflow Stats Nominal, BUILDING STORY 1 THERMALZONE STRIPMALL STRIP MALL - TYPE 2 C END_B - STORY GROUND INFILTRATION,ALWAYS ON DISCRETE,BUILDING STORY 1 THERMALZONE,10024.26,863.2,0.000,0.000,N/A,0.000,0.000,0.000,0.224,0.000
 ZoneInfiltration Airflow Stats Nominal, BUILDING STORY 1 THERMALZONE 1 STRIPMALL STRIP MALL - TYPE 2 C END_B - STORY GROUND INFILTRATION,ALWAYS ON DISCRETE,BUILDING STORY 1 THERMALZONE 1,649.05,55.9,8.090E-003,1.246E-005,9.674E-006,1.246E-002,0.000,0.000,0.224,0.000
 ZoneInfiltration Airflow Stats Nominal, BUILDING STORY 1 THERMALZONE 2 STRIPMALL STRIP MALL - TYPE 2 C END_B - STORY GROUND INFILTRATION,ALWAYS ON DISCRETE,BUILDING STORY 1 THERMALZONE 2,133.10,11.5,1.737E-003,1.305E-005,9.674E-006,1.305E-002,0.000,0.000,0.224,0.000
 ZoneInfiltration Airflow Stats Nominal, BUILDING STORY 1 THERMALZONE 3 STRIPMALL STRIP MALL - TYPE 2 C END_B - STORY GROUND INFILTRATION,ALWAYS ON DISCRETE,BUILDING STORY 1 THERMALZONE 3,649.06,55.9,8.090E-003,1.246E-005,9.674E-006,1.246E-002,0.000,0.000,0.224,0.000
 ZoneInfiltration Airflow Stats Nominal, BUILDING STORY 1 THERMALZONE 4 STRIPMALL STRIP MALL - TYPE 2 C END_B - STORY GROUND INFILTRATION,ALWAYS ON DISCRETE,BUILDING STORY 1 THERMALZONE 4,133.10,11.5,1.737E-003,1.305E-005,9.674E-006,1.305E-002,0.000,0.000,0.224,0.000
 ZoneInfiltration Airflow Stats Nominal, BUILDING STORY 2 THERMALZONE STRIPMALL STRIP MALL - TYPE 2 A  - STORY MID INFILTRATION,ALWAYS ON DISCRETE,BUILDING STORY 2 THERMALZONE,10024.26,863.2,0.000,0.000,N/A,0.000,0.000,0.000,0.224,0.000
 ZoneInfiltration Airflow Stats Nominal, BUILDING STORY 2 THERMALZONE 1 STRIPMALL STRIP MALL - TYPE 2 A  - STORY MID INFILTRATION,ALWAYS ON DISCRETE,BUILDING STORY 2 THERMALZONE 1,649.05,55.9,9.122E-002,1.405E-004,1.091E-004,0.141,0.000,0.000,0.224,0.000
 ZoneInfiltration Airflow Stats Nominal, BUILDING STORY 2 THERMALZONE 2 STRIPMALL STRIP MALL - TYPE 2 A  - STORY MID INFILTRATION,ALWAYS ON DISCRETE,BUILDING STORY 2 THERMALZONE 2,133.10,11.5,1.959E-002,1.472E-004,1.091E-004,0.147,0.000,0.000,0.224,0.000
 ZoneInfiltration Airflow Stats Nominal, BUILDING STORY 2 THERMALZONE 3 STRIPMALL STRIP MALL - TYPE 2 A  - STORY MID INFILTRATION,ALWAYS ON DISCRETE,BUILDING STORY 2 THERMALZONE 3,649.06,55.9,9.122E-002,1.405E-004,1.091E-004,0.141,0.000,0.000,0.224,0.000
 ZoneInfiltration Airflow Stats Nominal, BUILDING STORY 2 THERMALZONE 4 STRIPMALL STRIP MALL - TYPE 2 A  - STORY MID INFILTRATION,ALWAYS ON DISCRETE,BUILDING STORY 2 THERMALZONE 4,133.10,11.5,1.959E-002,1.472E-004,1.091E-004,0.147,0.000,0.000,0.224,0.000
 ZoneInfiltration Airflow Stats Nominal, BUILDING STORY 2 THERMALZONE STRIPMALL STRIP MALL - TYPE 2 A END_B - STORY MID INFILTRATION,ALWAYS ON DISCRETE,BUILDING STORY 2 THERMALZONE,10024.26,863.2,0.000,0.000,N/A,0.000,0.000,0.000,0.224,0.000
 ZoneInfiltration Airflow Stats Nominal, BUILDING STORY 2 THERMALZONE 1 STRIPMALL STRIP MALL - TYPE 2 A END_B - STORY MID INFILTRATION,ALWAYS ON DISCRETE,BUILDING STORY 2 THERMALZONE 1,649.05,55.9,8.090E-003,1.246E-005,9.674E-006,1.246E-002,0.000,0.000,0.224,0.000
 ZoneInfiltration Airflow Stats Nominal, BUILDING STORY 2 THERMALZONE 2 STRIPMALL STRIP MALL - TYPE 2 A END_B - STORY MID INFILTRATION,ALWAYS ON DISCRETE,BUILDING STORY 2 THERMALZONE 2,133.10,11.5,1.737E-003,1.305E-005,9.674E-006,1.305E-002,0.000,0.000,0.224,0.000
 ZoneInfiltration Airflow Stats Nominal, BUILDING STORY 2 THERMALZONE 3 STRIPMALL STRIP MALL - TYPE 2 A END_B - STORY MID INFILTRATION,ALWAYS ON DISCRETE,BUILDING STORY 2 THERMALZONE 3,649.06,55.9,8.090E-003,1.246E-005,9.674E-006,1.246E-002,0.000,0.000,0.224,0.000
 ZoneInfiltration Airflow Stats Nominal, BUILDING STORY 2 THERMALZONE 4 STRIPMALL STRIP MALL - TYPE 2 A END_B - STORY MID INFILTRATION,ALWAYS ON DISCRETE,BUILDING STORY 2 THERMALZONE 4,133.10,11.5,1.737E-003,1.305E-005,9.674E-006,1.305E-002,0.000,0.000,0.224,0.000
 ZoneInfiltration Airflow Stats Nominal, BUILDING STORY 2 THERMALZONE STRIPMALL STRIP MALL - TYPE 2 B END_B - STORY MID INFILTRATION,ALWAYS ON DISCRETE,BUILDING STORY 2 THERMALZONE,10024.26,863.2,0.000,0.000,N/A,0.000,0.000,0.000,0.224,0.000
 ZoneInfiltration Airflow Stats Nominal, BUILDING STORY 2 THERMALZONE 1 STRIPMALL STRIP MALL - TYPE 2 B END_B - STORY MID INFILTRATION,ALWAYS ON DISCRETE,BUILDING STORY 2 THERMALZONE 1,649.05,55.9,3.954E-002,6.092E-005,4.728E-005,6.092E-002,0.000,0.000,0.224,0.000
 ZoneInfiltration Airflow Stats Nominal, BUILDING STORY 2 THERMALZONE 2 STRIPMALL STRIP MALL - TYPE 2 B END_B - STORY MID INFILTRATION,ALWAYS ON DISCRETE,BUILDING STORY 2 THERMALZONE 2,133.10,11.5,8.491E-003,6.380E-005,4.728E-005,6.380E-002,0.000,0.000,0.224,0.000
 ZoneInfiltration Airflow Stats Nominal, BUILDING STORY 2 THERMALZONE 3 STRIPMALL STRIP MALL - TYPE 2 B END_B - STORY MID INFILTRATION,ALWAYS ON DISCRETE,BUILDING STORY 2 THERMALZONE 3,649.06,55.9,3.954E-002,6.092E-005,4.728E-005,6.092E-002,0.000,0.000,0.224,0.000
 ZoneInfiltration Airflow Stats Nominal, BUILDING STORY 2 THERMALZONE 4 STRIPMALL STRIP MALL - TYPE 2 B END_B - STORY MID INFILTRATION,ALWAYS ON DISCRETE,BUILDING STORY 2 THERMALZONE 4,133.10,11.5,8.492E-003,6.380E-005,4.728E-005,6.380E-002,0.000,0.000,0.224,0.000
 ZoneInfiltration Airflow Stats Nominal, BUILDING STORY 2 THERMALZONE STRIPMALL STRIP MALL - TYPE 2 C  - STORY MID INFILTRATION,ALWAYS ON DISCRETE,BUILDING STORY 2 THERMALZONE,10024.26,863.2,0.000,0.000,N/A,0.000,0.000,0.000,0.224,0.000
 ZoneInfiltration Airflow Stats Nominal, BUILDING STORY 2 THERMALZONE 1 STRIPMALL STRIP MALL - TYPE 2 C  - STORY MID INFILTRATION,ALWAYS ON DISCRETE,BUILDING STORY 2 THERMALZONE 1,649.05,55.9,9.122E-002,1.405E-004,1.091E-004,0.141,0.000,0.000,0.224,0.000
 ZoneInfiltration Airflow Stats Nominal, BUILDING STORY 2 THERMALZONE 2 STRIPMALL STRIP MALL - TYPE 2 C  - STORY MID INFILTRATION,ALWAYS ON DISCRETE,BUILDING STORY 2 THERMALZONE 2,133.10,11.5,1.959E-002,1.472E-004,1.091E-004,0.147,0.000,0.000,0.224,0.000
 ZoneInfiltration Airflow Stats Nominal, BUILDING STORY 2 THERMALZONE 3 STRIPMALL STRIP MALL - TYPE 2 C  - STORY MID INFILTRATION,ALWAYS ON DISCRETE,BUILDING STORY 2 THERMALZONE 3,649.06,55.9,9.122E-002,1.405E-004,1.091E-004,0.141,0.000,0.000,0.224,0.000
 ZoneInfiltration Airflow Stats Nominal, BUILDING STORY 2 THERMALZONE 4 STRIPMALL STRIP MALL - TYPE 2 C  - STORY MID INFILTRATION,ALWAYS ON DISCRETE,BUILDING STORY 2 THERMALZONE 4,133.10,11.5,1.959E-002,1.472E-004,1.091E-004,0.147,0.000,0.000,0.224,0.000
 ZoneInfiltration Airflow Stats Nominal, BUILDING STORY 2 THERMALZONE STRIPMALL STRIP MALL - TYPE 2 C END_B - STORY MID INFILTRATION,ALWAYS ON DISCRETE,BUILDING STORY 2 THERMALZONE,10024.26,863.2,0.000,0.000,N/A,0.000,0.000,0.000,0.224,0.000
 ZoneInfiltration Airflow Stats Nominal, BUILDING STORY 2 THERMALZONE 1 STRIPMALL STRIP MALL - TYPE 2 C END_B - STORY MID INFILTRATION,ALWAYS ON DISCRETE,BUILDING STORY 2 THERMALZONE 1,649.05,55.9,8.090E-003,1.246E-005,9.674E-006,1.246E-002,0.000,0.000,0.224,0.000
 ZoneInfiltration Airflow Stats Nominal, BUILDING STORY 2 THERMALZONE 2 STRIPMALL STRIP MALL - TYPE 2 C END_B - STORY MID INFILTRATION,ALWAYS ON DISCRETE,BUILDING STORY 2 THERMALZONE 2,133.10,11.5,1.737E-003,1.305E-005,9.674E-006,1.305E-002,0.000,0.000,0.224,0.000
 ZoneInfiltration Airflow Stats Nominal, BUILDING STORY 2 THERMALZONE 3 STRIPMALL STRIP MALL - TYPE 2 C END_B - STORY MID INFILTRATION,ALWAYS ON DISCRETE,BUILDING STORY 2 THERMALZONE 3,649.06,55.9,8.090E-003,1.246E-005,9.674E-006,1.246E-002,0.000,0.000,0.224,0.000
 ZoneInfiltration Airflow Stats Nominal, BUILDING STORY 2 THERMALZONE 4 STRIPMALL STRIP MALL - TYPE 2 C END_B - STORY MID INFILTRATION,ALWAYS ON DISCRETE,BUILDING STORY 2 THERMALZONE 4,133.10,11.5,1.737E-003,1.305E-005,9.674E-006,1.305E-002,0.000,0.000,0.224,0.000
 ZoneInfiltration Airflow Stats Nominal, BUILDING STORY 2 THERMALZONE STRIPMALL STRIP MALL - TYPE 3 A  - STORY MID INFILTRATION,ALWAYS ON DISCRETE,BUILDING STORY 2 THERMALZONE,10024.26,863.2,0.000,0.000,N/A,0.000,0.000,0.000,0.224,0.000
 ZoneInfiltration Airflow Stats Nominal, BUILDING STORY 2 THERMALZONE 1 STRIPMALL STRIP MALL - TYPE 3 A  - STORY MID INFILTRATION,ALWAYS ON DISCRETE,BUILDING STORY 2 THERMALZONE 1,649.05,55.9,9.122E-002,1.405E-004,1.091E-004,0.141,0.000,0.000,0.224,0.000
 ZoneInfiltration Airflow Stats Nominal, BUILDING STORY 2 THERMALZONE 2 STRIPMALL STRIP MALL - TYPE 3 A  - STORY MID INFILTRATION,ALWAYS ON DISCRETE,BUILDING STORY 2 THERMALZONE 2,133.10,11.5,1.959E-002,1.472E-004,1.091E-004,0.147,0.000,0.000,0.224,0.000
 ZoneInfiltration Airflow Stats Nominal, BUILDING STORY 2 THERMALZONE 3 STRIPMALL STRIP MALL - TYPE 3 A  - STORY MID INFILTRATION,ALWAYS ON DISCRETE,BUILDING STORY 2 THERMALZONE 3,649.06,55.9,9.122E-002,1.405E-004,1.091E-004,0.141,0.000,0.000,0.224,0.000
 ZoneInfiltration Airflow Stats Nominal, BUILDING STORY 2 THERMALZONE 4 STRIPMALL STRIP MALL - TYPE 3 A  - STORY MID INFILTRATION,ALWAYS ON DISCRETE,BUILDING STORY 2 THERMALZONE 4,133.10,11.5,1.959E-002,1.472E-004,1.091E-004,0.147,0.000,0.000,0.224,0.000
 ZoneInfiltration Airflow Stats Nominal, BUILDING STORY 2 THERMALZONE STRIPMALL STRIP MALL - TYPE 3 A END_A - STORY MID INFILTRATION,ALWAYS ON DISCRETE,BUILDING STORY 2 THERMALZONE,10024.26,863.2,0.000,0.000,N/A,0.000,0.000,0.000,0.224,0.000
 ZoneInfiltration Airflow Stats Nominal, BUILDING STORY 2 THERMALZONE 1 STRIPMALL STRIP MALL - TYPE 3 A END_A - STORY MID INFILTRATION,ALWAYS ON DISCRETE,BUILDING STORY 2 THERMALZONE 1,649.05,55.9,8.090E-003,1.246E-005,9.674E-006,1.246E-002,0.000,0.000,0.224,0.000
 ZoneInfiltration Airflow Stats Nominal, BUILDING STORY 2 THERMALZONE 2 STRIPMALL STRIP MALL - TYPE 3 A END_A - STORY MID INFILTRATION,ALWAYS ON DISCRETE,BUILDING STORY 2 THERMALZONE 2,133.10,11.5,1.737E-003,1.305E-005,9.674E-006,1.305E-002,0.000,0.000,0.224,0.000
 ZoneInfiltration Airflow Stats Nominal, BUILDING STORY 2 THERMALZONE 3 STRIPMALL STRIP MALL - TYPE 3 A END_A - STORY MID INFILTRATION,ALWAYS ON DISCRETE,BUILDING STORY 2 THERMALZONE 3,649.06,55.9,8.090E-003,1.246E-005,9.674E-006,1.246E-002,0.000,0.000,0.224,0.000
 ZoneInfiltration Airflow Stats Nominal, BUILDING STORY 2 THERMALZONE 4 STRIPMALL STRIP MALL - TYPE 3 A END_A - STORY MID INFILTRATION,ALWAYS ON DISCRETE,BUILDING STORY 2 THERMALZONE 4,133.10,11.5,1.737E-003,1.305E-005,9.674E-006,1.305E-002,0.000,0.000,0.224,0.000
 ZoneInfiltration Airflow Stats Nominal, BUILDING STORY 2 THERMALZONE STRIPMALL STRIP MALL - TYPE 3 B END_A - STORY MID INFILTRATION,ALWAYS ON DISCRETE,BUILDING STORY 2 THERMALZONE,10024.26,863.2,0.000,0.000,N/A,0.000,0.000,0.000,0.224,0.000
 ZoneInfiltration Airflow Stats Nominal, BUILDING STORY 2 THERMALZONE 1 STRIPMALL STRIP MALL - TYPE 3 B END_A - STORY MID INFILTRATION,ALWAYS ON DISCRETE,BUILDING STORY 2 THERMALZONE 1,649.05,55.9,3.954E-002,6.092E-005,4.728E-005,6.092E-002,0.000,0.000,0.224,0.000
 ZoneInfiltration Airflow Stats Nominal, BUILDING STORY 2 THERMALZONE 2 STRIPMALL STRIP MALL - TYPE 3 B END_A - STORY MID INFILTRATION,ALWAYS ON DISCRETE,BUILDING STORY 2 THERMALZONE 2,133.10,11.5,8.491E-003,6.380E-005,4.728E-005,6.380E-002,0.000,0.000,0.224,0.000
 ZoneInfiltration Airflow Stats Nominal, BUILDING STORY 2 THERMALZONE 3 STRIPMALL STRIP MALL - TYPE 3 B END_A - STORY MID INFILTRATION,ALWAYS ON DISCRETE,BUILDING STORY 2 THERMALZONE 3,649.06,55.9,3.954E-002,6.092E-005,4.728E-005,6.092E-002,0.000,0.000,0.224,0.000
 ZoneInfiltration Airflow Stats Nominal, BUILDING STORY 2 THERMALZONE 4 STRIPMALL STRIP MALL - TYPE 3 B END_A - STORY MID INFILTRATION,ALWAYS ON DISCRETE,BUILDING STORY 2 THERMALZONE 4,133.10,11.5,8.492E-003,6.380E-005,4.728E-005,6.380E-002,0.000,0.000,0.224,0.000
 ZoneInfiltration Airflow Stats Nominal, BUILDING STORY 2 THERMALZONE STRIPMALL STRIP MALL - TYPE 3 C  - STORY MID INFILTRATION,ALWAYS ON DISCRETE,BUILDING STORY 2 THERMALZONE,10024.26,863.2,0.000,0.000,N/A,0.000,0.000,0.000,0.224,0.000
 ZoneInfiltration Airflow Stats Nominal, BUILDING STORY 2 THERMALZONE 1 STRIPMALL STRIP MALL - TYPE 3 C  - STORY MID INFILTRATION,ALWAYS ON DISCRETE,BUILDING STORY 2 THERMALZONE 1,649.05,55.9,9.122E-002,1.405E-004,1.091E-004,0.141,0.000,0.000,0.224,0.000
 ZoneInfiltration Airflow Stats Nominal, BUILDING STORY 2 THERMALZONE 2 STRIPMALL STRIP MALL - TYPE 3 C  - STORY MID INFILTRATION,ALWAYS ON DISCRETE,BUILDING STORY 2 THERMALZONE 2,133.10,11.5,1.959E-002,1.472E-004,1.091E-004,0.147,0.000,0.000,0.224,0.000
 ZoneInfiltration Airflow Stats Nominal, BUILDING STORY 2 THERMALZONE 3 STRIPMALL STRIP MALL - TYPE 3 C  - STORY MID INFILTRATION,ALWAYS ON DISCRETE,BUILDING STORY 2 THERMALZONE 3,649.06,55.9,9.122E-002,1.405E-004,1.091E-004,0.141,0.000,0.000,0.224,0.000
 ZoneInfiltration Airflow Stats Nominal, BUILDING STORY 2 THERMALZONE 4 STRIPMALL STRIP MALL - TYPE 3 C  - STORY MID INFILTRATION,ALWAYS ON DISCRETE,BUILDING STORY 2 THERMALZONE 4,133.10,11.5,1.959E-002,1.472E-004,1.091E-004,0.147,0.000,0.000,0.224,0.000
 ZoneInfiltration Airflow Stats Nominal, BUILDING STORY 2 THERMALZONE STRIPMALL STRIP MALL - TYPE 3 C END_A - STORY MID INFILTRATION,ALWAYS ON DISCRETE,BUILDING STORY 2 THERMALZONE,10024.26,863.2,0.000,0.000,N/A,0.000,0.000,0.000,0.224,0.000
 ZoneInfiltration Airflow Stats Nominal, BUILDING STORY 2 THERMALZONE 1 STRIPMALL STRIP MALL - TYPE 3 C END_A - STORY MID INFILTRATION,ALWAYS ON DISCRETE,BUILDING STORY 2 THERMALZONE 1,649.05,55.9,8.090E-003,1.246E-005,9.674E-006,1.246E-002,0.000,0.000,0.224,0.000
 ZoneInfiltration Airflow Stats Nominal, BUILDING STORY 2 THERMALZONE 2 STRIPMALL STRIP MALL - TYPE 3 C END_A - STORY MID INFILTRATION,ALWAYS ON DISCRETE,BUILDING STORY 2 THERMALZONE 2,133.10,11.5,1.737E-003,1.305E-005,9.674E-006,1.305E-002,0.000,0.000,0.224,0.000
 ZoneInfiltration Airflow Stats Nominal, BUILDING STORY 2 THERMALZONE 3 STRIPMALL STRIP MALL - TYPE 3 C END_A - STORY MID INFILTRATION,ALWAYS ON DISCRETE,BUILDING STORY 2 THERMALZONE 3,649.06,55.9,8.090E-003,1.246E-005,9.674E-006,1.246E-002,0.000,0.000,0.224,0.000
 ZoneInfiltration Airflow Stats Nominal, BUILDING STORY 2 THERMALZONE 4 STRIPMALL STRIP MALL - TYPE 3 C END_A - STORY MID INFILTRATION,ALWAYS ON DISCRETE,BUILDING STORY 2 THERMALZONE 4,133.10,11.5,1.737E-003,1.305E-005,9.674E-006,1.305E-002,0.000,0.000,0.224,0.000
 ZoneInfiltration Airflow Stats Nominal, BUILDING STORY 3 THERMALZONE STRIPMALL STRIP MALL - TYPE 3 A  - STORY TOP INFILTRATION,ALWAYS ON DISCRETE,BUILDING STORY 3 THERMALZONE,10024.26,863.2,0.271,2.705E-005,2.705E-005,2.705E-002,0.000,0.000,0.224,0.000
 ZoneInfiltration Airflow Stats Nominal, BUILDING STORY 3 THERMALZONE 1 STRIPMALL STRIP MALL - TYPE 3 A  - STORY TOP INFILTRATION,ALWAYS ON DISCRETE,BUILDING STORY 3 THERMALZONE 1,649.05,55.9,4.018E-002,6.190E-005,2.705E-005,6.190E-002,0.000,0.000,0.224,0.000
 ZoneInfiltration Airflow Stats Nominal, BUILDING STORY 3 THERMALZONE 2 STRIPMALL STRIP MALL - TYPE 3 A  - STORY TOP INFILTRATION,ALWAYS ON DISCRETE,BUILDING STORY 3 THERMALZONE 2,133.10,11.5,8.457E-003,6.354E-005,2.705E-005,6.354E-002,0.000,0.000,0.224,0.000
 ZoneInfiltration Airflow Stats Nominal, BUILDING STORY 3 THERMALZONE 3 STRIPMALL STRIP MALL - TYPE 3 A  - STORY TOP INFILTRATION,ALWAYS ON DISCRETE,BUILDING STORY 3 THERMALZONE 3,649.06,55.9,4.018E-002,6.190E-005,2.705E-005,6.190E-002,0.000,0.000,0.224,0.000
 ZoneInfiltration Airflow Stats Nominal, BUILDING STORY 3 THERMALZONE 4 STRIPMALL STRIP MALL - TYPE 3 A  - STORY TOP INFILTRATION,ALWAYS ON DISCRETE,BUILDING STORY 3 THERMALZONE 4,133.10,11.5,8.458E-003,6.354E-005,2.705E-005,6.354E-002,0.000,0.000,0.224,0.000
 ZoneInfiltration Airflow Stats Nominal, BUILDING STORY 3 THERMALZONE STRIPMALL STRIP MALL - TYPE 3 A END_A - STORY TOP INFILTRATION,ALWAYS ON DISCRETE,BUILDING STORY 3 THERMALZONE,10024.26,863.2,1.202E-002,1.199E-006,1.199E-006,1.199E-003,0.000,0.000,0.224,0.000
 ZoneInfiltration Airflow Stats Nominal, BUILDING STORY 3 THERMALZONE 1 STRIPMALL STRIP MALL - TYPE 3 A END_A - STORY TOP INFILTRATION,ALWAYS ON DISCRETE,BUILDING STORY 3 THERMALZONE 1,649.05,55.9,1.781E-003,2.745E-006,1.199E-006,2.745E-003,0.000,0.000,0.224,0.000
 ZoneInfiltration Airflow Stats Nominal, BUILDING STORY 3 THERMALZONE 2 STRIPMALL STRIP MALL - TYPE 3 A END_A - STORY TOP INFILTRATION,ALWAYS ON DISCRETE,BUILDING STORY 3 THERMALZONE 2,133.10,11.5,3.750E-004,2.818E-006,1.199E-006,2.818E-003,0.000,0.000,0.224,0.000
 ZoneInfiltration Airflow Stats Nominal, BUILDING STORY 3 THERMALZONE 3 STRIPMALL STRIP MALL - TYPE 3 A END_A - STORY TOP INFILTRATION,ALWAYS ON DISCRETE,BUILDING STORY 3 THERMALZONE 3,649.06,55.9,1.781E-003,2.745E-006,1.199E-006,2.745E-003,0.000,0.000,0.224,0.000
 ZoneInfiltration Airflow Stats Nominal, BUILDING STORY 3 THERMALZONE 4 STRIPMALL STRIP MALL - TYPE 3 A END_A - STORY TOP INFILTRATION,ALWAYS ON DISCRETE,BUILDING STORY 3 THERMALZONE 4,133.10,11.5,3.750E-004,2.818E-006,1.199E-006,2.818E-003,0.000,0.000,0.224,0.000
 ZoneInfiltration Airflow Stats Nominal, BUILDING STORY 3 THERMALZONE STRIPMALL STRIP MALL - TYPE 3 A END_B - STORY TOP INFILTRATION,ALWAYS ON DISCRETE,BUILDING STORY 3 THERMALZONE,10024.26,863.2,1.202E-002,1.199E-006,1.199E-006,1.199E-003,0.000,0.000,0.224,0.000
 ZoneInfiltration Airflow Stats Nominal, BUILDING STORY 3 THERMALZONE 1 STRIPMALL STRIP MALL - TYPE 3 A END_B - STORY TOP INFILTRATION,ALWAYS ON DISCRETE,BUILDING STORY 3 THERMALZONE 1,649.05,55.9,1.781E-003,2.745E-006,1.199E-006,2.745E-003,0.000,0.000,0.224,0.000
 ZoneInfiltration Airflow Stats Nominal, BUILDING STORY 3 THERMALZONE 2 STRIPMALL STRIP MALL - TYPE 3 A END_B - STORY TOP INFILTRATION,ALWAYS ON DISCRETE,BUILDING STORY 3 THERMALZONE 2,133.10,11.5,3.750E-004,2.818E-006,1.199E-006,2.818E-003,0.000,0.000,0.224,0.000
 ZoneInfiltration Airflow Stats Nominal, BUILDING STORY 3 THERMALZONE 3 STRIPMALL STRIP MALL - TYPE 3 A END_B - STORY TOP INFILTRATION,ALWAYS ON DISCRETE,BUILDING STORY 3 THERMALZONE 3,649.06,55.9,1.781E-003,2.745E-006,1.199E-006,2.745E-003,0.000,0.000,0.224,0.000
 ZoneInfiltration Airflow Stats Nominal, BUILDING STORY 3 THERMALZONE 4 STRIPMALL STRIP MALL - TYPE 3 A END_B - STORY TOP INFILTRATION,ALWAYS ON DISCRETE,BUILDING STORY 3 THERMALZONE 4,133.10,11.5,3.750E-004,2.818E-006,1.199E-006,2.818E-003,0.000,0.000,0.224,0.000
 ZoneInfiltration Airflow Stats Nominal, BUILDING STORY 3 THERMALZONE STRIPMALL STRIP MALL - TYPE 3 B END_A - STORY TOP INFILTRATION,ALWAYS ON DISCRETE,BUILDING STORY 3 THERMALZONE,10024.26,863.2,5.877E-002,5.862E-006,5.862E-006,5.862E-003,0.000,0.000,0.224,0.000
 ZoneInfiltration Airflow Stats Nominal, BUILDING STORY 3 THERMALZONE 1 STRIPMALL STRIP MALL - TYPE 3 B END_A - STORY TOP INFILTRATION,ALWAYS ON DISCRETE,BUILDING STORY 3 THERMALZONE 1,649.05,55.9,8.708E-003,1.342E-005,5.862E-006,1.342E-002,0.000,0.000,0.224,0.000
 ZoneInfiltration Airflow Stats Nominal, BUILDING STORY 3 THERMALZONE 2 STRIPMALL STRIP MALL - TYPE 3 B END_A - STORY TOP INFILTRATION,ALWAYS ON DISCRETE,BUILDING STORY 3 THERMALZONE 2,133.10,11.5,1.833E-003,1.377E-005,5.862E-006,1.377E-002,0.000,0.000,0.224,0.000
 ZoneInfiltration Airflow Stats Nominal, BUILDING STORY 3 THERMALZONE 3 STRIPMALL STRIP MALL - TYPE 3 B END_A - STORY TOP INFILTRATION,ALWAYS ON DISCRETE,BUILDING STORY 3 THERMALZONE 3,649.06,55.9,8.708E-003,1.342E-005,5.862E-006,1.342E-002,0.000,0.000,0.224,0.000
 ZoneInfiltration Airflow Stats Nominal, BUILDING STORY 3 THERMALZONE 4 STRIPMALL STRIP MALL - TYPE 3 B END_A - STORY TOP INFILTRATION,ALWAYS ON DISCRETE,BUILDING STORY 3 THERMALZONE 4,133.10,11.5,1.833E-003,1.377E-005,5.862E-006,1.377E-002,0.000,0.000,0.224,0.000
 ZoneInfiltration Airflow Stats Nominal, BUILDING STORY 3 THERMALZONE STRIPMALL STRIP MALL - TYPE 3 B END_B - STORY TOP INFILTRATION,ALWAYS ON DISCRETE,BUILDING STORY 3 THERMALZONE,10024.26,863.2,5.877E-002,5.862E-006,5.862E-006,5.862E-003,0.000,0.000,0.224,0.000
[...]
 Warmup Convergence Information,BUILDING STORY 2 THERMALZONE 1,SizingPeriod: BUFFALO NIAGARA INTL AP ANN CLG .4% CONDNS DB=>MWB 1 HVAC Sizing Pass 1,8.7444242185E-002,0.1600353683,Pass,Pass,8.1316337593E-002,0.1075553807,Pass,Pass
 Warmup Convergence Information,BUILDING STORY 2 THERMALZONE 2,SizingPeriod: BUFFALO NIAGARA INTL AP ANN CLG .4% CONDNS DB=>MWB 1 HVAC Sizing Pass 1,0.1046081928,0.2147377482,Pass,Pass,7.3202831025E-002,0.1348292053,Pass,Pass
 Warmup Convergence Information,BUILDING STORY 2 THERMALZONE 3,SizingPeriod: BUFFALO NIAGARA INTL AP ANN CLG .4% CONDNS DB=>MWB 1 HVAC Sizing Pass 1,0.1900994652,0.3145132767,Pass,Pass,5.7296899751E-002,7.0542956519E-002,Pass,Pass
 Warmup Convergence Information,BUILDING STORY 2 THERMALZONE 4,SizingPeriod: BUFFALO NIAGARA INTL AP ANN CLG .4% CONDNS DB=>MWB 1 HVAC Sizing Pass 1,9.6309147433E-002,0.1493219514,Pass,Pass,6.4223778274E-002,6.8044721722E-002,Pass,Pass
 Warmup Convergence Information,BUILDING STORY 3 THERMALZONE,SizingPeriod: BUFFALO NIAGARA INTL AP ANN CLG .4% CONDNS DB=>MWB 1 HVAC Sizing Pass 1,7.9636816747E-002,0.2096744099,Pass,Pass,3.7186796422E-002,8.8056615171E-002,Pass,Pass
 Warmup Convergence Information,BUILDING STORY 3 THERMALZONE 1,SizingPeriod: BUFFALO NIAGARA INTL AP ANN CLG .4% CONDNS DB=>MWB 1 HVAC Sizing Pass 1,7.8951647872E-002,0.1297827932,Pass,Pass,8.7330428219E-002,0.1074054260,Pass,Pass
 Warmup Convergence Information,BUILDING STORY 3 THERMALZONE 2,SizingPeriod: BUFFALO NIAGARA INTL AP ANN CLG .4% CONDNS DB=>MWB 1 HVAC Sizing Pass 1,9.8143337222E-002,0.1732083676,Pass,Pass,7.4383644958E-002,0.1219581879,Pass,Pass
 Warmup Convergence Information,BUILDING STORY 3 THERMALZONE 3,SizingPeriod: BUFFALO NIAGARA INTL AP ANN CLG .4% CONDNS DB=>MWB 1 HVAC Sizing Pass 1,0.2227801509,0.3038795004,Pass,Pass,5.8888783232E-002,6.7575851698E-002,Pass,Pass
 Warmup Convergence Information,BUILDING STORY 3 THERMALZONE 4,SizingPeriod: BUFFALO NIAGARA INTL AP ANN CLG .4% CONDNS DB=>MWB 1 HVAC Sizing Pass 1,8.9668389448E-002,0.1355350919,Pass,Pass,6.7962688720E-002,6.2466632810E-002,Pass,Pass
Environment:Design Day Data,27.80,9.30,DefaultMultipliers,Wetbulb,23.80,{C},98769,240,5.7,0.00,No,No
Environment:Design Day Misc,202,1084.4,0.2082,0.1365,1.0,-6.23,20.6,ASHRAETau
Environment:WarmupDays,  5
 Warmup Convergence Information,BUILDING STORY 1 THERMALZONE,SizingPeriod: BUFFALO NIAGARA INTL AP ANN CLG .4% CONDNS WB=>MDB 1 HVAC Sizing Pass 1,9.0899840989E-005,4.1117725133E-005,Pass,Pass,2.2202045864E-005,1.9436099010E-005,Pass,Pass
 Warmup Convergence Information,BUILDING STORY 1 THERMALZONE 1,SizingPeriod: BUFFALO NIAGARA INTL AP ANN CLG .4% CONDNS WB=>MDB 1 HVAC Sizing Pass 1,0.2766134344,0.2486668775,Pass,Pass,4.7735252841E-002,3.8223308272E-002,Pass,Pass
 Warmup Convergence Information,BUILDING STORY 1 THERMALZONE 2,SizingPeriod: BUFFALO NIAGARA INTL AP ANN CLG .4% CONDNS WB=>MDB 1 HVAC Sizing Pass 1,0.1550418021,0.1112504224,Pass,Pass,2.6643230099E-002,1.9598735454E-002,Pass,Pass
 Warmup Convergence Information,BUILDING STORY 1 THERMALZONE 3,SizingPeriod: BUFFALO NIAGARA INTL AP ANN CLG .4% CONDNS WB=>MDB 1 HVAC Sizing Pass 1,0.2323431365,0.2348573609,Pass,Pass,4.3832105655E-002,3.7691008660E-002,Pass,Pass
 Warmup Convergence Information,BUILDING STORY 1 THERMALZONE 4,SizingPeriod: BUFFALO NIAGARA INTL AP ANN CLG .4% CONDNS WB=>MDB 1 HVAC Sizing Pass 1,0.2178265727,0.1545051507,Pass,Pass,3.5888274536E-002,2.2639645220E-002,Pass,Pass
 Warmup Convergence Information,BUILDING STORY 2 THERMALZONE,SizingPeriod: BUFFALO NIAGARA INTL AP ANN CLG .4% CONDNS WB=>MDB 1 HVAC Sizing Pass 1,7.5962662109E-002,0.1945753242,Pass,Pass,3.0188587313E-002,8.0447724774E-002,Pass,Pass
 Warmup Convergence Information,BUILDING STORY 2 THERMALZONE 1,SizingPeriod: BUFFALO NIAGARA INTL AP ANN CLG .4% CONDNS WB=>MDB 1 HVAC Sizing Pass 1,7.1600181248E-002,0.1204555655,Pass,Pass,7.7834945079E-002,9.6270543830E-002,Pass,Pass
 Warmup Convergence Information,BUILDING STORY 2 THERMALZONE 2,SizingPeriod: BUFFALO NIAGARA INTL AP ANN CLG .4% CONDNS WB=>MDB 1 HVAC Sizing Pass 1,8.1608868451E-002,0.1332581484,Pass,Pass,6.6967322159E-002,0.1067870776,Pass,Pass
 Warmup Convergence Information,BUILDING STORY 2 THERMALZONE 3,SizingPeriod: BUFFALO NIAGARA INTL AP ANN CLG .4% CONDNS WB=>MDB 1 HVAC Sizing Pass 1,0.1868646812,0.2620501472,Pass,Pass,5.2875236371E-002,6.4015023685E-002,Pass,Pass
 Warmup Convergence Information,BUILDING STORY 2 THERMALZONE 4,SizingPeriod: BUFFALO NIAGARA INTL AP ANN CLG .4% CONDNS WB=>MDB 1 HVAC Sizing Pass 1,7.4329855318E-002,0.1100480658,Pass,Pass,6.0282102802E-002,5.5350893976E-002,Pass,Pass
 Warmup Convergence Information,BUILDING STORY 3 THERMALZONE,SizingPeriod: BUFFALO NIAGARA INTL AP ANN CLG .4% CONDNS WB=>MDB 1 HVAC Sizing Pass 1,7.3010197340E-002,0.1886315183,Pass,Pass,3.5446673961E-002,8.3357202627E-002,Pass,Pass
 Warmup Convergence Information,BUILDING STORY 3 THERMALZONE 1,SizingPeriod: BUFFALO NIAGARA INTL AP ANN CLG .4% CONDNS WB=>MDB 1 HVAC Sizing Pass 1,8.7862449700E-002,0.1021797406,Pass,Pass,8.4335648623E-002,0.1022555506,Pass,Pass
 Warmup Convergence Information,BUILDING STORY 3 THERMALZONE 2,SizingPeriod: BUFFALO NIAGARA INTL AP ANN CLG .4% CONDNS WB=>MDB 1 HVAC Sizing Pass 1,7.7770453675E-002,0.1041139969,Pass,Pass,6.9740114421E-002,0.1007651477,Pass,Pass
 Warmup Convergence Information,BUILDING STORY 3 THERMALZONE 3,SizingPeriod: BUFFALO NIAGARA INTL AP ANN CLG .4% CONDNS WB=>MDB 1 HVAC Sizing Pass 1,0.2195095936,0.2640420778,Pass,Pass,5.5124193800E-002,5.9874394907E-002,Pass,Pass
 Warmup Convergence Information,BUILDING STORY 3 THERMALZONE 4,SizingPeriod: BUFFALO NIAGARA INTL AP ANN CLG .4% CONDNS WB=>MDB 1 HVAC Sizing Pass 1,8.2711916244E-002,0.1264369472,Pass,Pass,6.5273019611E-002,5.7678461050E-002,Pass,Pass
Environment:Design Day Data,-16.30,0.00,DefaultMultipliers,Wetbulb,-16.30,{C},98769,270,5.1,0.00,No,No
Environment:Design Day Misc, 21,1229.0,0.1415,5.7310E-002,1.0,-11.15,-20.1,ASHRAEClearSky
Environment:WarmupDays,  6
 Warmup Convergence Information,BUILDING STORY 1 THERMALZONE,SizingPeriod: BUFFALO NIAGARA INTL AP ANN HTG 99.6% CONDNS DB 1 HVAC Sizing Pass 1,0.2321844043,0.5662284498,Pass,Pass,8.1199723898E-002,0.1347759893,Pass,Pass
 Warmup Convergence Information,BUILDING STORY 1 THERMALZONE 1,SizingPeriod: BUFFALO NIAGARA INTL AP ANN HTG 99.6% CONDNS DB 1 HVAC Sizing Pass 1,0.4644703909,1.0850792593,Pass,Pass,0.8691387218,3.2047114070,Pass,Pass
 Warmup Convergence Information,BUILDING STORY 1 THERMALZONE 2,SizingPeriod: BUFFALO NIAGARA INTL AP ANN HTG 99.6% CONDNS DB 1 HVAC Sizing Pass 1,0.4661062340,1.0604152415,Pass,Pass,1.2839609332,5.3851888655,Pass,Pass
 Warmup Convergence Information,BUILDING STORY 1 THERMALZONE 3,SizingPeriod: BUFFALO NIAGARA INTL AP ANN HTG 99.6% CONDNS DB 1 HVAC Sizing Pass 1,0.4647870518,1.0908015939,Pass,Pass,0.8409436800,3.0614158626,Pass,Pass
 Warmup Convergence Information,BUILDING STORY 1 THERMALZONE 4,SizingPeriod: BUFFALO NIAGARA INTL AP ANN HTG 99.6% CONDNS DB 1 HVAC Sizing Pass 1,0.4650405981,1.0770800808,Pass,Pass,1.1474050719,4.7153307845,Pass,Pass
 Warmup Convergence Information,BUILDING STORY 2 THERMALZONE,SizingPeriod: BUFFALO NIAGARA INTL AP ANN HTG 99.6% CONDNS DB 1 HVAC Sizing Pass 1,0.2067029240,0.4309881159,Pass,Pass,4.1614312237E-002,6.4296223903E-002,Pass,Pass
 Warmup Convergence Information,BUILDING STORY 2 THERMALZONE 1,SizingPeriod: BUFFALO NIAGARA INTL AP ANN HTG 99.6% CONDNS DB 1 HVAC Sizing Pass 1,0.4653377402,1.1156969858,Pass,Pass,1.4074098931,6.1080193338,Pass,Pass
 Warmup Convergence Information,BUILDING STORY 2 THERMALZONE 2,SizingPeriod: BUFFALO NIAGARA INTL AP ANN HTG 99.6% CONDNS DB 1 HVAC Sizing Pass 1,0.3617301367,0.9337606439,Pass,Pass,0.2501391703,0.7828701323,Pass,Pass
 Warmup Convergence Information,BUILDING STORY 2 THERMALZONE 3,SizingPeriod: BUFFALO NIAGARA INTL AP ANN HTG 99.6% CONDNS DB 1 HVAC Sizing Pass 1,0.4651357055,1.1245361220,Pass,Pass,1.4679603122,6.3899480862,Pass,Pass
 Warmup Convergence Information,BUILDING STORY 2 THERMALZONE 4,SizingPeriod: BUFFALO NIAGARA INTL AP ANN HTG 99.6% CONDNS DB 1 HVAC Sizing Pass 1,0.4647723606,1.0674235088,Pass,Pass,0.8928466091,3.7061327817,Pass,Pass
 Warmup Convergence Information,BUILDING STORY 3 THERMALZONE,SizingPeriod: BUFFALO NIAGARA INTL AP ANN HTG 99.6% CONDNS DB 1 HVAC Sizing Pass 1,0.3246435820,0.6739794062,Pass,Pass,0.1642992548,0.3386074431,Pass,Pass
 Warmup Convergence Information,BUILDING STORY 3 THERMALZONE 1,SizingPeriod: BUFFALO NIAGARA INTL AP ANN HTG 99.6% CONDNS DB 1 HVAC Sizing Pass 1,0.4643372519,1.0655976087,Pass,Pass,7.7003527639,36.1106491332,Pass,Pass
 Warmup Convergence Information,BUILDING STORY 3 THERMALZONE 2,SizingPeriod: BUFFALO NIAGARA INTL AP ANN HTG 99.6% CONDNS DB 1 HVAC Sizing Pass 1,0.4583865553,0.9513322682,Pass,Pass,0.7427434144,3.1103658862,Pass,Pass
 Warmup Convergence Information,BUILDING STORY 3 THERMALZONE 3,SizingPeriod: BUFFALO NIAGARA INTL AP ANN HTG 99.6% CONDNS DB 1 HVAC Sizing Pass 1,0.4644163719,1.0848596998,Pass,Pass,5.0998447191,23.6084568332,Pass,Pass
 Warmup Convergence Information,BUILDING STORY 3 THERMALZONE 4,SizingPeriod: BUFFALO NIAGARA INTL AP ANN HTG 99.6% CONDNS DB 1 HVAC Sizing Pass 1,0.4639647579,1.0220650328,Pass,Pass,16.5931002305,78.8232856764,Pass,Pass
! <Plant Coincident Sizing Algorithm>,Plant Loop Name,Sizing Pass {#},Measured Mass Flow{kg/s},Measured Demand {W},Demand Calculated Mass Flow{kg/s},Sizes Changed {Yes/No},Previous Volume Flow Rate {m3/s},New Volume Flow Rate {m3/s},Demand Check Applied {Yes/No},Sizing Factor {},Normalized Change {},Specific Heat{J/kg-K},Density {kg/m3}
Plant Coincident Sizing Algorithm,CONDENSER WATER LOOP,1,223.8136108,2828296.78,121.2724890,Yes,0.223836,0.257412,No,1.1500,0.150000,4197.9300,999.8980
Environment:Design Day Data,30.30,9.30,DefaultMultipliers,Wetbulb,21.80,{C},98769,240,5.7,0.00,No,No
Environment:Design Day Misc,202,1084.4,0.2082,0.1365,1.0,-6.23,20.6,ASHRAETau
 Component Sizing Information, PlantLoop, CHILLED WATER LOOP, Maximum Loop Flow Rate [m3/s], 0.19036
 Component Sizing Information, PlantLoop, CHILLED WATER LOOP, Plant Loop Volume [m3], 22.84354
 Component Sizing Information, PlantLoop, CONDENSER WATER LOOP, Maximum Loop Flow Rate [m3/s], 0.25741
 Component Sizing Information, PlantLoop, CONDENSER WATER LOOP, Plant Loop Volume [m3], 30.88943
 Component Sizing Information, PlantLoop, HOT WATER LOOP, Maximum Loop Flow Rate [m3/s], 7.57969E-002
 Component Sizing Information, PlantLoop, HOT WATER LOOP, Plant Loop Volume [m3], 9.09562
 Component Sizing Information, PlantLoop, STRIPMALL STRIP MALL - TYPE 1 - 90.1-2013 SERVICE WATER LOOP, Maximum Loop Flow Rate [m3/s], 7.94936E-005
 Component Sizing Information, PlantLoop, STRIPMALL STRIP MALL - TYPE 1 - 90.1-2013 SERVICE WATER LOOP, Plant Loop Volume [m3], 9.53924E-003
 Component Sizing Information, PlantLoop, STRIPMALL STRIP MALL - TYPE 2 - 90.1-2013 SERVICE WATER LOOP, Maximum Loop Flow Rate [m3/s], 7.94936E-005
 Component Sizing Information, PlantLoop, STRIPMALL STRIP MALL - TYPE 2 - 90.1-2013 SERVICE WATER LOOP, Plant Loop Volume [m3], 9.53924E-003
 Component Sizing Information, PlantLoop, STRIPMALL STRIP MALL - TYPE 3 - 90.1-2013 SERVICE WATER LOOP, Maximum Loop Flow Rate [m3/s], 1.57095E-004
 Component Sizing Information, PlantLoop, STRIPMALL STRIP MALL - TYPE 3 - 90.1-2013 SERVICE WATER LOOP, Plant Loop Volume [m3], 1.88514E-002
 Component Sizing Information, Pump:VariableSpeed, CHILLED WATER LOOP SECONDARY PUMP, Design Flow Rate [m3/s], 0.19036
 Component Sizing Information, Pump:VariableSpeed, CHILLED WATER LOOP SECONDARY PUMP, Design Power Consumption [W], 34885.59160
 Component Sizing Information, Chiller:Electric:EIR, 90.1-2013 WATERCOOLED  ROTARY SCREW CHILLER 0 961TONS 0.6KW/TON, Design Size Reference Chilled Water Flow Rate [m3/s], 0.19036
 Component Sizing Information, Chiller:Electric:EIR, 90.1-2013 WATERCOOLED  ROTARY SCREW CHILLER 0 961TONS 0.6KW/TON, Design Size Reference Capacity [W], 4483549.07033
 Component Sizing Information, Chiller:Electric:EIR, 90.1-2013 WATERCOOLED  ROTARY SCREW CHILLER 0 961TONS 0.6KW/TON, Design Size Reference Condenser Fluid Flow Rate [m3/s], 0.22384
! <Chiller Standard Rating Information>, Component Type, Component Name, IPLV in SI Units {W/W}, IPLV in IP Units {Btu/W-h}
 Chiller Standard Rating Information, Chiller:Electric:EIR, 90.1-2013 WATERCOOLED  ROTARY SCREW CHILLER 0 961TONS 0.6KW/TON, 5.77, 19.70
 Component Sizing Information, Pump:ConstantSpeed, CHILLED WATER LOOP PRIMARY PUMP, Design Flow Rate [m3/s], 0.19036
 Component Sizing Information, Pump:ConstantSpeed, CHILLED WATER LOOP PRIMARY PUMP, Design Power Consumption [W], 11842.47536
 Component Sizing Information, CoolingTower:VariableSpeed, PROPELLER OR AXIAL VARIABLE SPEED FAN OPEN COOLING TOWER 40.2 GPM/HP, Design Water Flow Rate [m3/s], 0.25741
 Component Sizing Information, CoolingTower:VariableSpeed, PROPELLER OR AXIAL VARIABLE SPEED FAN OPEN COOLING TOWER 40.2 GPM/HP, Design Air Flow Rate [m3/s], 148.08706
 Component Sizing Information, CoolingTower:VariableSpeed, PROPELLER OR AXIAL VARIABLE SPEED FAN OPEN COOLING TOWER 40.2 GPM/HP, Nominal Capacity [W], 5941980.51198
 Component Sizing Information, CoolingTower:VariableSpeed, PROPELLER OR AXIAL VARIABLE SPEED FAN OPEN COOLING TOWER 40.2 GPM/HP, Air Flow Rate in free convection regime [m3/s], 29.61741
 Component Sizing Information, CoolingTower:VariableSpeed, PROPELLER OR AXIAL VARIABLE SPEED FAN OPEN COOLING TOWER 40.2 GPM/HP, Tower capacity in free convection regime at design conditions [W], 742747.56400
 Component Sizing Information, Pump:ConstantSpeed, CONDENSER WATER LOOP CONSTANT PUMP, Design Flow Rate [m3/s], 0.25741
 Component Sizing Information, Pump:ConstantSpeed, CONDENSER WATER LOOP CONSTANT PUMP, Design Power Consumption [W], 51606.26799
 Component Sizing Information, Boiler:HotWater, BOILER 8707KBTU/HR 0.8 THERMAL EFF, Design Size Nominal Capacity [W], 3465341.42171
 Component Sizing Information, Boiler:HotWater, BOILER 8707KBTU/HR 0.8 THERMAL EFF, Design Size Design Water Flow Rate [m3/s], 7.57969E-002
 Component Sizing Information, Pump:VariableSpeed, HOT WATER LOOP PUMP, Design Flow Rate [m3/s], 7.57969E-002
 Component Sizing Information, Pump:VariableSpeed, HOT WATER LOOP PUMP, Design Power Consumption [W], 18739.60983
 Component Sizing Information, WaterHeater:Mixed, 42X 50GAL NATURALGAS WATER HEATER - 20KBTU/HR 0.82 THERM EFF, Use Side Design Flow Rate [m3/s], 7.94936E-005
 Component Sizing Information, Pump:VariableSpeed, STRIPMALL STRIP MALL - TYPE 1 - 90.1-2013 SERVICE WATER LOOP WATER MAINS PRESSURE DRIVEN, Design Flow Rate [m3/s], 7.94936E-005
 Component Sizing Information, Pump:VariableSpeed, STRIPMALL STRIP MALL - TYPE 1 - 90.1-2013 SERVICE WATER LOOP WATER MAINS PRESSURE DRIVEN, Design Power Consumption [W], 1.45593E-007
 Component Sizing Information, WaterHeater:Mixed, 42X 50GAL NATURALGAS WATER HEATER - 20KBTU/HR 1 0.82 THERM EFF, Use Side Design Flow Rate [m3/s], 7.94936E-005
 Component Sizing Information, Pump:VariableSpeed, STRIPMALL STRIP MALL - TYPE 2 - 90.1-2013 SERVICE WATER LOOP WATER MAINS PRESSURE DRIVEN, Design Flow Rate [m3/s], 7.94936E-005
 Component Sizing Information, Pump:VariableSpeed, STRIPMALL STRIP MALL - TYPE 2 - 90.1-2013 SERVICE WATER LOOP WATER MAINS PRESSURE DRIVEN, Design Power Consumption [W], 1.45593E-007
 Component Sizing Information, WaterHeater:Mixed, 83X 50GAL NATURALGAS WATER HEATER - 20KBTU/HR 0.82 THERM EFF, Use Side Design Flow Rate [m3/s], 1.57095E-004
 Component Sizing Information, Pump:VariableSpeed, STRIPMALL STRIP MALL - TYPE 3 - 90.1-2013 SERVICE WATER LOOP WATER MAINS PRESSURE DRIVEN, Design Flow Rate [m3/s], 1.57095E-004
 Component Sizing Information, Pump:VariableSpeed, STRIPMALL STRIP MALL - TYPE 3 - 90.1-2013 SERVICE WATER LOOP WATER MAINS PRESSURE DRIVEN, Design Power Consumption [W], 2.87719E-007
Environment:Design Day Data,27.80,9.30,DefaultMultipliers,Wetbulb,23.80,{C},98769,240,5.7,0.00,No,No
Environment:Design Day Misc,202,1084.4,0.2082,0.1365,1.0,-6.23,20.6,ASHRAETau
Environment:Design Day Data,-16.30,0.00,DefaultMultipliers,Wetbulb,-16.30,{C},98769,270,5.1,0.00,No,No
Environment:Design Day Misc, 21,1229.0,0.1415,5.7310E-002,1.0,-11.15,-20.1,ASHRAEClearSky
Environment,RUN PERIOD 1,WeatherFileRunPeriod,01/01/2017,12/31/2017,Sunday,365,Use RunPeriod Specified Day,No,No,No,Yes,Yes,Clark and Allen
Environment:Design Day Data,30.30,9.30,DefaultMultipliers,Wetbulb,21.80,{C},98769,240,5.7,0.00,No,No
Environment:Design Day Misc,202,1084.4,0.2082,0.1365,1.0,-6.23,20.6,ASHRAETau
Environment:Design Day Data,27.80,9.30,DefaultMultipliers,Wetbulb,23.80,{C},98769,240,5.7,0.00,No,No
Environment:Design Day Misc,202,1084.4,0.2082,0.1365,1.0,-6.23,20.6,ASHRAETau
Environment:Design Day Data,-16.30,0.00,DefaultMultipliers,Wetbulb,-16.30,{C},98769,270,5.1,0.00,No,No
Environment:Design Day Misc, 21,1229.0,0.1415,5.7310E-002,1.0,-11.15,-20.1,ASHRAEClearSky
Environment,RUN PERIOD 1,WeatherFileRunPeriod,01/01/2017,12/31/2017,Sunday,365,Use RunPeriod Specified Day,No,No,No,Yes,Yes,Clark and Allen
Environment:Daylight Saving,Yes,InputFile,03/12,11/05
Environment:WarmupDays, 10
 Warmup Convergence Information,BUILDING STORY 1 THERMALZONE,RunPeriod: RUN PERIOD 1,9.2111488849E-002,0.1163816350,Pass,Pass,7.9736555152E-002,0.1693645195,Pass,Pass
 Warmup Convergence Information,BUILDING STORY 1 THERMALZONE 1,RunPeriod: RUN PERIOD 1,0.4988157380,0.9111166145,Pass,Pass,0.1910054831,0.4088158985,Pass,Pass
 Warmup Convergence Information,BUILDING STORY 1 THERMALZONE 2,RunPeriod: RUN PERIOD 1,0.5186082307,0.9545637971,Pass,Pass,0.1696856654,0.3871884917,Pass,Pass
 Warmup Convergence Information,BUILDING STORY 1 THERMALZONE 3,RunPeriod: RUN PERIOD 1,0.5006152754,0.9133325207,Pass,Pass,0.1746660399,0.3980083838,Pass,Pass
 Warmup Convergence Information,BUILDING STORY 1 THERMALZONE 4,RunPeriod: RUN PERIOD 1,0.5052908676,0.9287127586,Pass,Pass,0.1918569801,0.4268349616,Pass,Pass
 Warmup Convergence Information,BUILDING STORY 2 THERMALZONE,RunPeriod: RUN PERIOD 1,0.3464187733,0.6973991284,Pass,Pass,7.3167740930E-002,0.2263698059,Pass,Pass
 Warmup Convergence Information,BUILDING STORY 2 THERMALZONE 1,RunPeriod: RUN PERIOD 1,0.7155496837,1.2693626611,Pass,Pass,0.1147132242,0.3203731630,Pass,Pass
 Warmup Convergence Information,BUILDING STORY 2 THERMALZONE 2,RunPeriod: RUN PERIOD 1,0.7380689427,1.2997835228,Pass,Pass,0.1112162963,0.3125685491,Pass,Pass
 Warmup Convergence Information,BUILDING STORY 2 THERMALZONE 3,RunPeriod: RUN PERIOD 1,0.7229855823,1.2875145043,Pass,Pass,0.1112890791,0.3142531283,Pass,Pass
 Warmup Convergence Information,BUILDING STORY 2 THERMALZONE 4,RunPeriod: RUN PERIOD 1,0.7153311889,1.2697655311,Pass,Pass,0.1121067984,0.3245702355,Pass,Pass
 Warmup Convergence Information,BUILDING STORY 3 THERMALZONE,RunPeriod: RUN PERIOD 1,0.1765708407,0.3410518706,Pass,Pass,0.2284741169,0.5732412348,Pass,Pass
 Warmup Convergence Information,BUILDING STORY 3 THERMALZONE 1,RunPeriod: RUN PERIOD 1,0.8001895645,1.4220749395,Pass,Pass,0.1465825277,0.3771432467,Pass,Pass
 Warmup Convergence Information,BUILDING STORY 3 THERMALZONE 2,RunPeriod: RUN PERIOD 1,0.8233839881,1.4154716110,Pass,Pass,0.1420052416,0.3687496805,Pass,Pass
 Warmup Convergence Information,BUILDING STORY 3 THERMALZONE 3,RunPeriod: RUN PERIOD 1,0.8165703980,1.4403928511,Pass,Pass,0.1446766384,0.3821642342,Pass,Pass
 Warmup Convergence Information,BUILDING STORY 3 THERMALZONE 4,RunPeriod: RUN PERIOD 1,0.8060752299,1.4174063168,Pass,Pass,0.1484667468,0.4053949534,Pass,Pass
! <Program Control Information:Threads/Parallel Sims>, Threading Supported,Maximum Number of Threads, Env Set Threads (OMP_NUM_THREADS), EP Env Set Threads (EP_OMP_NUM_THREADS), IDF Set Threads, Number of Threads Used (Interior Radiant Exchange), Number Nominal Surfaces, Number Parallel Sims
Program Control:Threads/Parallel Sims, No,1, N/A, N/A, N/A, N/A, N/A, N/A
End of Data
