Program Version,EnergyPlus, Version 9.4.0-998c4b761e, YMD=2021.04.17 04:41
! This file shows details about the branches, nodes, and other
! elements of the flow connections.
! This file is intended for use in "debugging" potential problems
! that may also be detected by the program, but may be more easily
! identified by "eye".
! This file is also intended to support software which draws a
! schematic diagram of the HVAC system.
! ===============================================================
! #Nodes,<Number of Unique Nodes>
 #Nodes,91
! <Node>,<NodeNumber>,<Node Name>,<Node Fluid Type>,<# Times Node Referenced After Definition>
 Node,1,NODE 6,Air,3
 Node,2,NODE 10,Air,2
 Node,3,NODE 9,Air,2
 Node,4,NODE 7,Air,2
 Node,5,UNIT 2 NODE 6,Air,3
 Node,6,UNIT 2 NODE 10,Air,2
 Node,7,UNIT 2 NODE 9,Air,2
 Node,8,UNIT 2 NODE 7,Air,2
 Node,9,UNIT 3 NODE 6,Air,3
 Node,10,UNIT 3 NODE 10,Air,2
 Node,11,UNIT 3 NODE 9,Air,2
 Node,12,UNIT 3 NODE 7,Air,2
 Node,13,NODE 3,Air,4
 Node,14,NODE 4,Air,3
 Node,15,UNIT 2 NODE 3,Air,4
 Node,16,UNIT 2 NODE 4,Air,3
 Node,17,UNIT 3 NODE 3,Air,4
 Node,18,UNIT 3 NODE 4,Air,3
 Node,19,NODE 2,Air,3
 Node,20,UNIT 2 NODE 2,Air,3
 Node,21,UNIT 3 NODE 2,Air,3
 Node,22,NODE 11,Water,2
 Node,23,NODE 19,Water,1
 Node,24,NODE 13,Water,1
 Node,25,NODE 17,Water,1
 Node,26,NODE 20,Water,1
 Node,27,NODE 21,Water,1
 Node,28,NODE 18,Water,1
 Node,29,NODE 12,Water,4
 Node,30,NODE 14,Water,2
 Node,31,DHW LOOP DEMAND INLET PIPE NODE,Water,1
 Node,32,NODE 16,Water,1
 Node,33,NODE 22,Water,1
 Node,34,DHW LOOP DEMAND BYPASS PIPE INLET NODE,Water,1
 Node,35,DHW LOOP DEMAND BYPASS PIPE OUTLET NODE,Water,1
 Node,36,DHW LOOP DEMAND OUTLET PIPE NODE,Water,1
 Node,37,NODE 15,Water,2
 Node,38,UNIT 2 NODE 11,Water,2
 Node,39,UNIT 2 NODE 19,Water,1
 Node,40,UNIT 2 NODE 13,Water,1
 Node,41,UNIT 2 NODE 17,Water,1
 Node,42,UNIT 2 NODE 20,Water,1
 Node,43,UNIT 2 NODE 21,Water,1
 Node,44,UNIT 2 NODE 18,Water,1
 Node,45,UNIT 2 NODE 12,Water,4
 Node,46,UNIT 2 NODE 14,Water,2
 Node,47,UNIT 2 DHW LOOP DEMAND INLET PIPE NODE,Water,1
 Node,48,UNIT 2 NODE 16,Water,1
 Node,49,UNIT 2 NODE 22,Water,1
 Node,50,UNIT 2 DHW LOOP DEMAND BYPASS PIPE INLET NODE,Water,1
 Node,51,UNIT 2 DHW LOOP DEMAND BYPASS PIPE OUTLET NODE,Water,1
 Node,52,UNIT 2 DHW LOOP DEMAND OUTLET PIPE NODE,Water,1
 Node,53,UNIT 2 NODE 15,Water,2
 Node,54,UNIT 3 NODE 11,Water,2
 Node,55,UNIT 3 NODE 19,Water,1
 Node,56,UNIT 3 NODE 13,Water,1
 Node,57,UNIT 3 NODE 17,Water,1
 Node,58,UNIT 3 NODE 20,Water,1
 Node,59,UNIT 3 NODE 21,Water,1
 Node,60,UNIT 3 NODE 18,Water,1
 Node,61,UNIT 3 NODE 12,Water,4
 Node,62,UNIT 3 NODE 14,Water,2
 Node,63,UNIT 3 DHW LOOP DEMAND INLET PIPE NODE,Water,1
 Node,64,UNIT 3 NODE 16,Water,1
 Node,65,UNIT 3 NODE 22,Water,1
 Node,66,UNIT 3 DHW LOOP DEMAND BYPASS PIPE INLET NODE,Water,1
 Node,67,UNIT 3 DHW LOOP DEMAND BYPASS PIPE OUTLET NODE,Water,1
 Node,68,UNIT 3 DHW LOOP DEMAND OUTLET PIPE NODE,Water,1
 Node,69,UNIT 3 NODE 15,Water,2
 Node,70,NODE 1,Air,0
 Node,71,UNIT 2 NODE 1,Air,0
 Node,72,UNIT 3 NODE 1,Air,0
 Node,73,NODE 5,Air,2
 Node,74,UNIT 2 NODE 5,Air,2
 Node,75,UNIT 3 NODE 5,Air,2
 Node,76,MODEL OUTDOOR AIR NODE,Air,0
 Node,77,NODE 8,Air,1
 Node,78,UNIT 2 NODE 8,Air,1
 Node,79,UNIT 3 NODE 8,Air,1
 Node,80,NODE 23,Air,0
 Node,81,NODE 25,Air,1
 Node,82,UNIT 2 NODE 23,Air,0
 Node,83,UNIT 2 NODE 25,Air,1
 Node,84,UNIT 3 NODE 23,Air,0
 Node,85,UNIT 3 NODE 25,Air,1
 Node,86,CENTRAL AC AND FURNACE UNITARY SYSTEM FAN - COOLING COIL NODE,Air,1
 Node,87,UNIT 2 CENTRAL AC AND FURNACE UNITARY SYSTEM FAN - COOLING COIL NODE,Air,1
 Node,88,UNIT 3 CENTRAL AC AND FURNACE UNITARY SYSTEM FAN - COOLING COIL NODE,Air,1
 Node,89,CENTRAL AC AND FURNACE UNITARY SYSTEM COOLING COIL - HEATING COIL NODE,Air,1
 Node,90,UNIT 2 CENTRAL AC AND FURNACE UNITARY SYSTEM COOLING COIL - HEATING COIL NODE,Air,1
 Node,91,UNIT 3 CENTRAL AC AND FURNACE UNITARY SYSTEM COOLING COIL - HEATING COIL NODE,Air,1
! ===============================================================
! Suspicious nodes have 0 references.  It is normal for some nodes, however.
! Listing nodes with 0 references (culled from previous list):
! <Suspicious Node>,<NodeNumber>,<Node Name>,<Node Fluid Type>,<# Times Node Referenced After Definition>
 Suspicious Node,70,NODE 1,Air,0
 Suspicious Node,71,UNIT 2 NODE 1,Air,0
 Suspicious Node,72,UNIT 3 NODE 1,Air,0
 Suspicious Node,76,MODEL OUTDOOR AIR NODE,Air,0
 Suspicious Node,80,NODE 23,Air,0
 Suspicious Node,82,UNIT 2 NODE 23,Air,0
 Suspicious Node,84,UNIT 3 NODE 23,Air,0
! ===============================================================
! <#Branch Lists>,<Number of Branch Lists>
 #Branch Lists,9
! <Branch List>,<Branch List Count>,<Branch List Name>,<Loop Name>,<Loop Type>,<Number of Branches>
! <Branch>,<Branch Count>,<Branch Name>,<Loop Name>,<Loop Type>,<Branch Inlet Node Name>,<Branch Outlet Node Name>
 Branch List,1,CENTRAL AC AND FURNACE AIRLOOP SUPPLY BRANCHES,CENTRAL AC AND FURNACE AIRLOOP,Air,1
   Branch,1,CENTRAL AC AND FURNACE AIRLOOP MAIN BRANCH,CENTRAL AC AND FURNACE AIRLOOP,Air,NODE 2,NODE 3
 Branch List,2,UNIT 2 CENTRAL AC AND FURNACE AIRLOOP SUPPLY BRANCHES,UNIT 2 CENTRAL AC AND FURNACE AIRLOOP,Air,1
   Branch,1,UNIT 2 CENTRAL AC AND FURNACE AIRLOOP MAIN BRANCH,UNIT 2 CENTRAL AC AND FURNACE AIRLOOP,Air,UNIT 2 NODE 2,UNIT 2 NODE 3
 Branch List,3,UNIT 3 CENTRAL AC AND FURNACE AIRLOOP SUPPLY BRANCHES,UNIT 3 CENTRAL AC AND FURNACE AIRLOOP,Air,1
   Branch,1,UNIT 3 CENTRAL AC AND FURNACE AIRLOOP MAIN BRANCH,UNIT 3 CENTRAL AC AND FURNACE AIRLOOP,Air,UNIT 3 NODE 2,UNIT 3 NODE 3
 Branch List,4,DHW LOOP SUPPLY BRANCHES,DHW LOOP,Plant Supply,4
   Branch,1,DHW LOOP SUPPLY INLET BRANCH,DHW LOOP,Plant Supply,NODE 11,NODE 19
   Branch,2,DHW LOOP SUPPLY BRANCH 1,DHW LOOP,Plant Supply,NODE 13,NODE 17
   Branch,3,DHW LOOP SUPPLY BRANCH 2,DHW LOOP,Plant Supply,NODE 20,NODE 21
   Branch,4,DHW LOOP SUPPLY OUTLET BRANCH,DHW LOOP,Plant Supply,NODE 18,NODE 12
 Branch List,5,DHW LOOP DEMAND BRANCHES,DHW LOOP,Plant Demand,4
   Branch,1,DHW LOOP DEMAND INLET BRANCH,DHW LOOP,Plant Demand,NODE 14,DHW LOOP DEMAND INLET PIPE NODE
   Branch,2,DHW LOOP DEMAND BRANCH 1,DHW LOOP,Plant Demand,NODE 16,NODE 22
   Branch,3,DHW LOOP DEMAND BYPASS BRANCH,DHW LOOP,Plant Demand,DHW LOOP DEMAND BYPASS PIPE INLET NODE,DHW LOOP DEMAND BYPASS PIPE OUTLET NODE
   Branch,4,DHW LOOP DEMAND OUTLET BRANCH,DHW LOOP,Plant Demand,DHW LOOP DEMAND OUTLET PIPE NODE,NODE 15
 Branch List,6,UNIT 2 DHW LOOP SUPPLY BRANCHES,UNIT 2 DHW LOOP,Plant Supply,4
   Branch,1,UNIT 2 DHW LOOP SUPPLY INLET BRANCH,UNIT 2 DHW LOOP,Plant Supply,UNIT 2 NODE 11,UNIT 2 NODE 19
   Branch,2,UNIT 2 DHW LOOP SUPPLY BRANCH 1,UNIT 2 DHW LOOP,Plant Supply,UNIT 2 NODE 13,UNIT 2 NODE 17
   Branch,3,UNIT 2 DHW LOOP SUPPLY BRANCH 2,UNIT 2 DHW LOOP,Plant Supply,UNIT 2 NODE 20,UNIT 2 NODE 21
   Branch,4,UNIT 2 DHW LOOP SUPPLY OUTLET BRANCH,UNIT 2 DHW LOOP,Plant Supply,UNIT 2 NODE 18,UNIT 2 NODE 12
 Branch List,7,UNIT 2 DHW LOOP DEMAND BRANCHES,UNIT 2 DHW LOOP,Plant Demand,4
   Branch,1,UNIT 2 DHW LOOP DEMAND INLET BRANCH,UNIT 2 DHW LOOP,Plant Demand,UNIT 2 NODE 14,UNIT 2 DHW LOOP DEMAND INLET PIPE NODE
   Branch,2,UNIT 2 DHW LOOP DEMAND BRANCH 1,UNIT 2 DHW LOOP,Plant Demand,UNIT 2 NODE 16,UNIT 2 NODE 22
   Branch,3,UNIT 2 DHW LOOP DEMAND BYPASS BRANCH,UNIT 2 DHW LOOP,Plant Demand,UNIT 2 DHW LOOP DEMAND BYPASS PIPE INLET NODE,UNIT 2 DHW LOOP DEMAND BYPASS PIPE OUTLET NODE
   Branch,4,UNIT 2 DHW LOOP DEMAND OUTLET BRANCH,UNIT 2 DHW LOOP,Plant Demand,UNIT 2 DHW LOOP DEMAND OUTLET PIPE NODE,UNIT 2 NODE 15
 Branch List,8,UNIT 3 DHW LOOP SUPPLY BRANCHES,UNIT 3 DHW LOOP,Plant Supply,4
   Branch,1,UNIT 3 DHW LOOP SUPPLY INLET BRANCH,UNIT 3 DHW LOOP,Plant Supply,UNIT 3 NODE 11,UNIT 3 NODE 19
   Branch,2,UNIT 3 DHW LOOP SUPPLY BRANCH 1,UNIT 3 DHW LOOP,Plant Supply,UNIT 3 NODE 13,UNIT 3 NODE 17
   Branch,3,UNIT 3 DHW LOOP SUPPLY BRANCH 2,UNIT 3 DHW LOOP,Plant Supply,UNIT 3 NODE 20,UNIT 3 NODE 21
   Branch,4,UNIT 3 DHW LOOP SUPPLY OUTLET BRANCH,UNIT 3 DHW LOOP,Plant Supply,UNIT 3 NODE 18,UNIT 3 NODE 12
 Branch List,9,UNIT 3 DHW LOOP DEMAND BRANCHES,UNIT 3 DHW LOOP,Plant Demand,4
   Branch,1,UNIT 3 DHW LOOP DEMAND INLET BRANCH,UNIT 3 DHW LOOP,Plant Demand,UNIT 3 NODE 14,UNIT 3 DHW LOOP DEMAND INLET PIPE NODE
   Branch,2,UNIT 3 DHW LOOP DEMAND BRANCH 1,UNIT 3 DHW LOOP,Plant Demand,UNIT 3 NODE 16,UNIT 3 NODE 22
   Branch,3,UNIT 3 DHW LOOP DEMAND BYPASS BRANCH,UNIT 3 DHW LOOP,Plant Demand,UNIT 3 DHW LOOP DEMAND BYPASS PIPE INLET NODE,UNIT 3 DHW LOOP DEMAND BYPASS PIPE OUTLET NODE
   Branch,4,UNIT 3 DHW LOOP DEMAND OUTLET BRANCH,UNIT 3 DHW LOOP,Plant Demand,UNIT 3 DHW LOOP DEMAND OUTLET PIPE NODE,UNIT 3 NODE 15
! ===============================================================
! <#Supply Air Paths>,<Number of Supply Air Paths>
 #Supply Air Paths,3
! <Supply Air Path>,<Supply Air Path Count>,<Supply Air Path Name>,<AirLoopHVAC Name>
! <#Components on Supply Air Path>,<Number of Components>
! <Supply Air Path Component>,<Component Count>,<Component Type>,<Component Name>,<AirLoopHVAC Name>
! <#Outlet Nodes on Supply Air Path Component>,<Number of Nodes>
! <Supply Air Path Component Nodes>,<Node Count>,<Component Type>,<Component Name>,<Inlet Node Name>,<Outlet Node Name>,<AirLoopHVAC Name>
 Supply Air Path,1,CENTRAL AC AND FURNACE AIRLOOP NODE 4 SUPPLY PATH,CENTRAL AC AND FURNACE AIRLOOP
   #Components on Supply Air Path,1
   Supply Air Path Component,1,AIRLOOPHVAC:ZONESPLITTER,CENTRAL AC AND FURNACE ZONE SPLITTER,CENTRAL AC AND FURNACE AIRLOOP
     #Outlet Nodes on Supply Air Path Component,1
     Supply Air Path Component Nodes,1,AIRLOOPHVAC:ZONESPLITTER,CENTRAL AC AND FURNACE ZONE SPLITTER,NODE 4,NODE 8,CENTRAL AC AND FURNACE AIRLOOP
! <#Nodes on Supply Air Path>,<Number of Nodes>
! <Supply Air Path Node>,<Node Type>,<Node Count>,<Node Name>,<AirLoopHVAC Name>
#Nodes on Supply Air Path,2
   Supply Air Path Node,Inlet Node,1,NODE 4,CENTRAL AC AND FURNACE AIRLOOP
   Supply Air Path Node,Outlet Node,2,NODE 8,CENTRAL AC AND FURNACE AIRLOOP
 Supply Air Path,2,UNIT 2 CENTRAL AC AND FURNACE AIRLOOP UNIT 2 NODE 4 SUPPLY PATH,UNIT 2 CENTRAL AC AND FURNACE AIRLOOP
   #Components on Supply Air Path,1
   Supply Air Path Component,1,AIRLOOPHVAC:ZONESPLITTER,UNIT 2 CENTRAL AC AND FURNACE ZONE SPLITTER,UNIT 2 CENTRAL AC AND FURNACE AIRLOOP
     #Outlet Nodes on Supply Air Path Component,1
     Supply Air Path Component Nodes,1,AIRLOOPHVAC:ZONESPLITTER,UNIT 2 CENTRAL AC AND FURNACE ZONE SPLITTER,UNIT 2 NODE 4,UNIT 2 NODE 8,UNIT 2 CENTRAL AC AND FURNACE AIRLOOP
! <#Nodes on Supply Air Path>,<Number of Nodes>
! <Supply Air Path Node>,<Node Type>,<Node Count>,<Node Name>,<AirLoopHVAC Name>
#Nodes on Supply Air Path,2
   Supply Air Path Node,Inlet Node,1,UNIT 2 NODE 4,UNIT 2 CENTRAL AC AND FURNACE AIRLOOP
   Supply Air Path Node,Outlet Node,2,UNIT 2 NODE 8,UNIT 2 CENTRAL AC AND FURNACE AIRLOOP
 Supply Air Path,3,UNIT 3 CENTRAL AC AND FURNACE AIRLOOP UNIT 3 NODE 4 SUPPLY PATH,UNIT 3 CENTRAL AC AND FURNACE AIRLOOP
   #Components on Supply Air Path,1
   Supply Air Path Component,1,AIRLOOPHVAC:ZONESPLITTER,UNIT 3 CENTRAL AC AND FURNACE ZONE SPLITTER,UNIT 3 CENTRAL AC AND FURNACE AIRLOOP
     #Outlet Nodes on Supply Air Path Component,1
     Supply Air Path Component Nodes,1,AIRLOOPHVAC:ZONESPLITTER,UNIT 3 CENTRAL AC AND FURNACE ZONE SPLITTER,UNIT 3 NODE 4,UNIT 3 NODE 8,UNIT 3 CENTRAL AC AND FURNACE AIRLOOP
! <#Nodes on Supply Air Path>,<Number of Nodes>
! <Supply Air Path Node>,<Node Type>,<Node Count>,<Node Name>,<AirLoopHVAC Name>
#Nodes on Supply Air Path,2
   Supply Air Path Node,Inlet Node,1,UNIT 3 NODE 4,UNIT 3 CENTRAL AC AND FURNACE AIRLOOP
   Supply Air Path Node,Outlet Node,2,UNIT 3 NODE 8,UNIT 3 CENTRAL AC AND FURNACE AIRLOOP
! ===============================================================
! <#Return Air Paths>,<Number of Return Air Paths>
 #Return Air Paths,3
! <Return Air Path>,<Return Air Path Count>,<Return Air Path Name>,<AirLoopHVAC Name>
! <#Components on Return Air Path>,<Number of Components>
! <Return Air Path Component>,<Component Count>,<Component Type>,<Component Name>,<AirLoopHVAC Name>
! <#Inlet Nodes on Return Air Path Component>,<Number of Nodes>
! <Return Air Path Component Nodes>,<Node Count>,<Component Type>,<Component Name>,<Inlet Node Name>,<Outlet Node Name>,<AirLoopHVAC Name>
 Return Air Path,1,CENTRAL AC AND FURNACE AIRLOOP RETURN PATH,CENTRAL AC AND FURNACE AIRLOOP
   #Components on Return Air Path,2
   Return Air Path Component,1,AIRLOOPHVAC:RETURNPLENUM,AIR LOOP HVAC RETURN PLENUM 1,CENTRAL AC AND FURNACE AIRLOOP
   Return Air Path Component,2,AIRLOOPHVAC:ZONEMIXER,CENTRAL AC AND FURNACE ZONE MIXER,CENTRAL AC AND FURNACE AIRLOOP
     #Inlet Nodes on Return Air Path Component,1
     Return Air Path Component Nodes,1,AIRLOOPHVAC:ZONEMIXER,CENTRAL AC AND FURNACE ZONE MIXER,NODE 25,NODE 5,CENTRAL AC AND FURNACE AIRLOOP
! <#Nodes on Return Air Path>,<Number of Nodes>
! <Return Air Path Node>,<Node Type>,<Node Count>,<Node Name>,<AirLoopHVAC Name>
   #Nodes on Return Air Path,3
   Return Air Path Node,Outlet Node,1,NODE 5,CENTRAL AC AND FURNACE AIRLOOP
   Return Air Path Node,Inlet Node,2,NODE 25,CENTRAL AC AND FURNACE AIRLOOP
   Return Air Path Node,Inlet Node,3,NODE 7,CENTRAL AC AND FURNACE AIRLOOP
 Return Air Path,2,UNIT 2 CENTRAL AC AND FURNACE AIRLOOP RETURN PATH,UNIT 2 CENTRAL AC AND FURNACE AIRLOOP
   #Components on Return Air Path,2
   Return Air Path Component,1,AIRLOOPHVAC:RETURNPLENUM,UNIT 2 AIR LOOP HVAC RETURN PLENUM 1,UNIT 2 CENTRAL AC AND FURNACE AIRLOOP
   Return Air Path Component,2,AIRLOOPHVAC:ZONEMIXER,UNIT 2 CENTRAL AC AND FURNACE ZONE MIXER,UNIT 2 CENTRAL AC AND FURNACE AIRLOOP
     #Inlet Nodes on Return Air Path Component,1
     Return Air Path Component Nodes,1,AIRLOOPHVAC:ZONEMIXER,UNIT 2 CENTRAL AC AND FURNACE ZONE MIXER,UNIT 2 NODE 25,UNIT 2 NODE 5,UNIT 2 CENTRAL AC AND FURNACE AIRLOOP
! <#Nodes on Return Air Path>,<Number of Nodes>
! <Return Air Path Node>,<Node Type>,<Node Count>,<Node Name>,<AirLoopHVAC Name>
   #Nodes on Return Air Path,3
   Return Air Path Node,Outlet Node,1,UNIT 2 NODE 5,UNIT 2 CENTRAL AC AND FURNACE AIRLOOP
   Return Air Path Node,Inlet Node,2,UNIT 2 NODE 25,UNIT 2 CENTRAL AC AND FURNACE AIRLOOP
   Return Air Path Node,Inlet Node,3,UNIT 2 NODE 7,UNIT 2 CENTRAL AC AND FURNACE AIRLOOP
 Return Air Path,3,UNIT 3 CENTRAL AC AND FURNACE AIRLOOP RETURN PATH,UNIT 3 CENTRAL AC AND FURNACE AIRLOOP
   #Components on Return Air Path,2
   Return Air Path Component,1,AIRLOOPHVAC:RETURNPLENUM,UNIT 3 AIR LOOP HVAC RETURN PLENUM 1,UNIT 3 CENTRAL AC AND FURNACE AIRLOOP
   Return Air Path Component,2,AIRLOOPHVAC:ZONEMIXER,UNIT 3 CENTRAL AC AND FURNACE ZONE MIXER,UNIT 3 CENTRAL AC AND FURNACE AIRLOOP
     #Inlet Nodes on Return Air Path Component,1
     Return Air Path Component Nodes,1,AIRLOOPHVAC:ZONEMIXER,UNIT 3 CENTRAL AC AND FURNACE ZONE MIXER,UNIT 3 NODE 25,UNIT 3 NODE 5,UNIT 3 CENTRAL AC AND FURNACE AIRLOOP
! <#Nodes on Return Air Path>,<Number of Nodes>
! <Return Air Path Node>,<Node Type>,<Node Count>,<Node Name>,<AirLoopHVAC Name>
   #Nodes on Return Air Path,3
   Return Air Path Node,Outlet Node,1,UNIT 3 NODE 5,UNIT 3 CENTRAL AC AND FURNACE AIRLOOP
   Return Air Path Node,Inlet Node,2,UNIT 3 NODE 25,UNIT 3 CENTRAL AC AND FURNACE AIRLOOP
   Return Air Path Node,Inlet Node,3,UNIT 3 NODE 7,UNIT 3 CENTRAL AC AND FURNACE AIRLOOP
! ===============================================================
! #Outdoor Air Nodes,<Number of Outdoor Air Nodes>
 #Outdoor Air Nodes,1
! <Outdoor Air Node>,<NodeNumber>,<Node Name>
 Outdoor Air Node,76,MODEL OUTDOOR AIR NODE
! ===============================================================
! <#Component Sets>,<Number of Component Sets>
 #Component Sets,39
! <Component Set>,<Component Set Count>,<Parent Object Type>,<Parent Object Name>,<Component Type>,<Component Name>,<Inlet Node ID>,<Outlet Node ID>,<Description>
 Component Set,1,BRANCH,CENTRAL AC AND FURNACE AIRLOOP MAIN BRANCH,AIRLOOPHVAC:UNITARYSYSTEM,CENTRAL AC AND FURNACE UNITARY SYSTEM,NODE 2,NODE 3,Air Nodes
 Component Set,2,BRANCH,UNIT 2 CENTRAL AC AND FURNACE AIRLOOP MAIN BRANCH,AIRLOOPHVAC:UNITARYSYSTEM,UNIT 2 CENTRAL AC AND FURNACE UNITARY SYSTEM,UNIT 2 NODE 2,UNIT 2 NODE 3,Air Nodes
 Component Set,3,BRANCH,UNIT 3 CENTRAL AC AND FURNACE AIRLOOP MAIN BRANCH,AIRLOOPHVAC:UNITARYSYSTEM,UNIT 3 CENTRAL AC AND FURNACE UNITARY SYSTEM,UNIT 3 NODE 2,UNIT 3 NODE 3,Air Nodes
 Component Set,4,BRANCH,DHW LOOP SUPPLY INLET BRANCH,PUMP:VARIABLESPEED,PUMP VARIABLE SPEED 1,NODE 11,NODE 19,Water Nodes
 Component Set,5,BRANCH,DHW LOOP SUPPLY BRANCH 1,PIPE:ADIABATIC,PIPE ADIABATIC 1,NODE 13,NODE 17,Pipe Nodes
 Component Set,6,BRANCH,DHW LOOP SUPPLY BRANCH 2,WATERHEATER:MIXED,WATER HEATER,NODE 20,NODE 21,Use Side Water Nodes
 Component Set,7,BRANCH,DHW LOOP SUPPLY OUTLET BRANCH,PIPE:ADIABATIC,PIPE ADIABATIC 2,NODE 18,NODE 12,Pipe Nodes
 Component Set,8,BRANCH,DHW LOOP DEMAND INLET BRANCH,PIPE:ADIABATIC,DHW LOOP DEMAND INLET PIPE,NODE 14,DHW LOOP DEMAND INLET PIPE NODE,Pipe Nodes
 Component Set,9,BRANCH,DHW LOOP DEMAND BRANCH 1,WATERUSE:CONNECTIONS,WATER USE CONNECTIONS 1,NODE 16,NODE 22,DHW Nodes
 Component Set,10,BRANCH,DHW LOOP DEMAND BYPASS BRANCH,PIPE:ADIABATIC,DHW LOOP DEMAND BYPASS PIPE,DHW LOOP DEMAND BYPASS PIPE INLET NODE,DHW LOOP DEMAND BYPASS PIPE OUTLET NODE,Pipe Nodes
 Component Set,11,BRANCH,DHW LOOP DEMAND OUTLET BRANCH,PIPE:ADIABATIC,DHW LOOP DEMAND OUTLET PIPE,DHW LOOP DEMAND OUTLET PIPE NODE,NODE 15,Pipe Nodes
 Component Set,12,BRANCH,UNIT 2 DHW LOOP SUPPLY INLET BRANCH,PUMP:VARIABLESPEED,UNIT 2 PUMP VARIABLE SPEED 1,UNIT 2 NODE 11,UNIT 2 NODE 19,Water Nodes
 Component Set,13,BRANCH,UNIT 2 DHW LOOP SUPPLY BRANCH 1,PIPE:ADIABATIC,UNIT 2 PIPE ADIABATIC 1,UNIT 2 NODE 13,UNIT 2 NODE 17,Pipe Nodes
 Component Set,14,BRANCH,UNIT 2 DHW LOOP SUPPLY BRANCH 2,WATERHEATER:MIXED,UNIT 2 WATER HEATER,UNIT 2 NODE 20,UNIT 2 NODE 21,Use Side Water Nodes
 Component Set,15,BRANCH,UNIT 2 DHW LOOP SUPPLY OUTLET BRANCH,PIPE:ADIABATIC,UNIT 2 PIPE ADIABATIC 2,UNIT 2 NODE 18,UNIT 2 NODE 12,Pipe Nodes
 Component Set,16,BRANCH,UNIT 2 DHW LOOP DEMAND INLET BRANCH,PIPE:ADIABATIC,UNIT 2 DHW LOOP DEMAND INLET PIPE,UNIT 2 NODE 14,UNIT 2 DHW LOOP DEMAND INLET PIPE NODE,Pipe Nodes
 Component Set,17,BRANCH,UNIT 2 DHW LOOP DEMAND BRANCH 1,WATERUSE:CONNECTIONS,UNIT 2 WATER USE CONNECTIONS 1,UNIT 2 NODE 16,UNIT 2 NODE 22,DHW Nodes
 Component Set,18,BRANCH,UNIT 2 DHW LOOP DEMAND BYPASS BRANCH,PIPE:ADIABATIC,UNIT 2 DHW LOOP DEMAND BYPASS PIPE,UNIT 2 DHW LOOP DEMAND BYPASS PIPE INLET NODE,UNIT 2 DHW LOOP DEMAND BYPASS PIPE OUTLET NODE,Pipe Nodes
 Component Set,19,BRANCH,UNIT 2 DHW LOOP DEMAND OUTLET BRANCH,PIPE:ADIABATIC,UNIT 2 DHW LOOP DEMAND OUTLET PIPE,UNIT 2 DHW LOOP DEMAND OUTLET PIPE NODE,UNIT 2 NODE 15,Pipe Nodes
 Component Set,20,BRANCH,UNIT 3 DHW LOOP SUPPLY INLET BRANCH,PUMP:VARIABLESPEED,UNIT 3 PUMP VARIABLE SPEED 1,UNIT 3 NODE 11,UNIT 3 NODE 19,Water Nodes
 Component Set,21,BRANCH,UNIT 3 DHW LOOP SUPPLY BRANCH 1,PIPE:ADIABATIC,UNIT 3 PIPE ADIABATIC 1,UNIT 3 NODE 13,UNIT 3 NODE 17,Pipe Nodes
 Component Set,22,BRANCH,UNIT 3 DHW LOOP SUPPLY BRANCH 2,WATERHEATER:MIXED,UNIT 3 WATER HEATER,UNIT 3 NODE 20,UNIT 3 NODE 21,Use Side Water Nodes
 Component Set,23,BRANCH,UNIT 3 DHW LOOP SUPPLY OUTLET BRANCH,PIPE:ADIABATIC,UNIT 3 PIPE ADIABATIC 2,UNIT 3 NODE 18,UNIT 3 NODE 12,Pipe Nodes
 Component Set,24,BRANCH,UNIT 3 DHW LOOP DEMAND INLET BRANCH,PIPE:ADIABATIC,UNIT 3 DHW LOOP DEMAND INLET PIPE,UNIT 3 NODE 14,UNIT 3 DHW LOOP DEMAND INLET PIPE NODE,Pipe Nodes
 Component Set,25,BRANCH,UNIT 3 DHW LOOP DEMAND BRANCH 1,WATERUSE:CONNECTIONS,UNIT 3 WATER USE CONNECTIONS 1,UNIT 3 NODE 16,UNIT 3 NODE 22,DHW Nodes
 Component Set,26,BRANCH,UNIT 3 DHW LOOP DEMAND BYPASS BRANCH,PIPE:ADIABATIC,UNIT 3 DHW LOOP DEMAND BYPASS PIPE,UNIT 3 DHW LOOP DEMAND BYPASS PIPE INLET NODE,UNIT 3 DHW LOOP DEMAND BYPASS PIPE OUTLET NODE,Pipe Nodes
 Component Set,27,BRANCH,UNIT 3 DHW LOOP DEMAND OUTLET BRANCH,PIPE:ADIABATIC,UNIT 3 DHW LOOP DEMAND OUTLET PIPE,UNIT 3 DHW LOOP DEMAND OUTLET PIPE NODE,UNIT 3 NODE 15,Pipe Nodes
 Component Set,28,ZONEHVAC:AIRDISTRIBUTIONUNIT,ADU CENTRAL AC AND FURNACE TERMINAL,AIRTERMINAL:SINGLEDUCT:CONSTANTVOLUME:NOREHEAT,CENTRAL AC AND FURNACE TERMINAL,NODE 8,NODE 6,Air Nodes
 Component Set,29,ZONEHVAC:AIRDISTRIBUTIONUNIT,ADU UNIT 2 CENTRAL AC AND FURNACE TERMINAL,AIRTERMINAL:SINGLEDUCT:CONSTANTVOLUME:NOREHEAT,UNIT 2 CENTRAL AC AND FURNACE TERMINAL,UNIT 2 NODE 8,UNIT 2 NODE 6,Air Nodes
 Component Set,30,ZONEHVAC:AIRDISTRIBUTIONUNIT,ADU UNIT 3 CENTRAL AC AND FURNACE TERMINAL,AIRTERMINAL:SINGLEDUCT:CONSTANTVOLUME:NOREHEAT,UNIT 3 CENTRAL AC AND FURNACE TERMINAL,UNIT 3 NODE 8,UNIT 3 NODE 6,Air Nodes
 Component Set,31,AIRLOOPHVAC:UNITARYSYSTEM,CENTRAL AC AND FURNACE UNITARY SYSTEM,FAN:ONOFF,CENTRAL AC AND FURNACE SUPPLY FAN,NODE 2,CENTRAL AC AND FURNACE UNITARY SYSTEM FAN - COOLING COIL NODE,Air Nodes
 Component Set,32,AIRLOOPHVAC:UNITARYSYSTEM,UNIT 2 CENTRAL AC AND FURNACE UNITARY SYSTEM,FAN:ONOFF,UNIT 2 CENTRAL AC AND FURNACE SUPPLY FAN,UNIT 2 NODE 2,UNIT 2 CENTRAL AC AND FURNACE UNITARY SYSTEM FAN - COOLING COIL NODE,Air Nodes
 Component Set,33,AIRLOOPHVAC:UNITARYSYSTEM,UNIT 3 CENTRAL AC AND FURNACE UNITARY SYSTEM,FAN:ONOFF,UNIT 3 CENTRAL AC AND FURNACE SUPPLY FAN,UNIT 3 NODE 2,UNIT 3 CENTRAL AC AND FURNACE UNITARY SYSTEM FAN - COOLING COIL NODE,Air Nodes
 Component Set,34,AIRLOOPHVAC:UNITARYSYSTEM,CENTRAL AC AND FURNACE UNITARY SYSTEM,COIL:HEATING:FUEL,CENTRAL AC AND FURNACE HTG COIL,CENTRAL AC AND FURNACE UNITARY SYSTEM COOLING COIL - HEATING COIL NODE,NODE 3,Air Nodes
 Component Set,35,AIRLOOPHVAC:UNITARYSYSTEM,UNIT 2 CENTRAL AC AND FURNACE UNITARY SYSTEM,COIL:HEATING:FUEL,UNIT 2 CENTRAL AC AND FURNACE HTG COIL,UNIT 2 CENTRAL AC AND FURNACE UNITARY SYSTEM COOLING COIL - HEATING COIL NODE,UNIT 2 NODE 3,Air Nodes
 Component Set,36,AIRLOOPHVAC:UNITARYSYSTEM,UNIT 3 CENTRAL AC AND FURNACE UNITARY SYSTEM,COIL:HEATING:FUEL,UNIT 3 CENTRAL AC AND FURNACE HTG COIL,UNIT 3 CENTRAL AC AND FURNACE UNITARY SYSTEM COOLING COIL - HEATING COIL NODE,UNIT 3 NODE 3,Air Nodes
 Component Set,37,AIRLOOPHVAC:UNITARYSYSTEM,CENTRAL AC AND FURNACE UNITARY SYSTEM,COIL:COOLING:DX:SINGLESPEED,CENTRAL AC AND FURNACE CLG COIL,CENTRAL AC AND FURNACE UNITARY SYSTEM FAN - COOLING COIL NODE,CENTRAL AC AND FURNACE UNITARY SYSTEM COOLING COIL - HEATING COIL NODE,Air Nodes
 Component Set,38,AIRLOOPHVAC:UNITARYSYSTEM,UNIT 2 CENTRAL AC AND FURNACE UNITARY SYSTEM,COIL:COOLING:DX:SINGLESPEED,UNIT 2 CENTRAL AC AND FURNACE CLG COIL,UNIT 2 CENTRAL AC AND FURNACE UNITARY SYSTEM FAN - COOLING COIL NODE,UNIT 2 CENTRAL AC AND FURNACE UNITARY SYSTEM COOLING COIL - HEATING COIL NODE,Air Nodes
 Component Set,39,AIRLOOPHVAC:UNITARYSYSTEM,UNIT 3 CENTRAL AC AND FURNACE UNITARY SYSTEM,COIL:COOLING:DX:SINGLESPEED,UNIT 3 CENTRAL AC AND FURNACE CLG COIL,UNIT 3 CENTRAL AC AND FURNACE UNITARY SYSTEM FAN - COOLING COIL NODE,UNIT 3 CENTRAL AC AND FURNACE UNITARY SYSTEM COOLING COIL - HEATING COIL NODE,Air Nodes
! ===============================================================
! <# Plant Loops>,<Number of Plant Loops>
 #Plant Loops,3
! <Plant Loop>,<Plant Loop Name>,<Loop Type>,<Inlet Node Name>,<Outlet Node Name>,<Branch List>,<Connector List>
! <Plant Loop Connector>,<Connector Type>,<Connector Name>,<Loop Name>,<Loop Type>,<Number of Inlets/Outlets>
! <Plant Loop Connector Branches>,<Connector Node Count>,<Connector Type>,<Connector Name>,<Inlet Branch>,<Outlet Branch>,<Loop Name>,<Loop Type>
! <Plant Loop Connector Nodes>,<Connector Node Count>,<Connector Type>,<Connector Name>,<Inlet Node>,<Outlet Node>,<Loop Name>,<Loop Type>
! <Plant Loop Supply Connection>,<Plant Loop Name>,<Supply Side Outlet Node Name>,<Demand Side Inlet Node Name>
! <Plant Loop Return Connection>,<Plant Loop Name>,<Demand Side Outlet Node Name>,<Supply Side Inlet Node Name>
 Plant Loop,DHW LOOP,Demand,NODE 14,NODE 15,DHW LOOP DEMAND BRANCHES,DHW LOOP DEMAND CONNECTOR LIST
   Plant Loop Connector,Splitter,DHW LOOP DEMAND SPLITTER,DHW LOOP,Demand,2
     Plant Loop Connector Branches,1,Splitter,DHW LOOP DEMAND SPLITTER,DHW LOOP DEMAND INLET BRANCH,DHW LOOP DEMAND BRANCH 1,DHW LOOP,Demand
     Plant Loop Connector Nodes,   1,Splitter,DHW LOOP DEMAND SPLITTER,DHW LOOP DEMAND INLET PIPE NODE,NODE 16,DHW LOOP,Demand
     Plant Loop Connector Branches,2,Splitter,DHW LOOP DEMAND SPLITTER,DHW LOOP DEMAND INLET BRANCH,DHW LOOP DEMAND BYPASS BRANCH,DHW LOOP,Demand
     Plant Loop Connector Nodes,   2,Splitter,DHW LOOP DEMAND SPLITTER,DHW LOOP DEMAND INLET PIPE NODE,DHW LOOP DEMAND BYPASS PIPE INLET NODE,DHW LOOP,Demand
   Plant Loop Connector,Mixer,DHW LOOP DEMAND MIXER,DHW LOOP,Demand,2
     Plant Loop Connector Branches,1,Mixer,DHW LOOP DEMAND MIXER,DHW LOOP DEMAND BRANCH 1,DHW LOOP DEMAND OUTLET BRANCH,DHW LOOP,Demand
     Plant Loop Connector Nodes,   1,Mixer,DHW LOOP DEMAND MIXER,NODE 22,DHW LOOP DEMAND OUTLET PIPE NODE,DHW LOOP,Demand
     Plant Loop Connector Branches,2,Mixer,DHW LOOP DEMAND MIXER,DHW LOOP DEMAND BYPASS BRANCH,DHW LOOP DEMAND OUTLET BRANCH,DHW LOOP,Demand
     Plant Loop Connector Nodes,   2,Mixer,DHW LOOP DEMAND MIXER,DHW LOOP DEMAND BYPASS PIPE OUTLET NODE,DHW LOOP DEMAND OUTLET PIPE NODE,DHW LOOP,Demand
 Plant Loop,DHW LOOP,Supply,NODE 11,NODE 12,DHW LOOP SUPPLY BRANCHES,DHW LOOP SUPPLY CONNECTOR LIST
   Plant Loop Connector,Splitter,DHW LOOP SUPPLY SPLITTER,DHW LOOP,Supply,2
     Plant Loop Connector Branches,1,Splitter,DHW LOOP SUPPLY SPLITTER,DHW LOOP SUPPLY INLET BRANCH,DHW LOOP SUPPLY BRANCH 1,DHW LOOP,Supply
     Plant Loop Connector Nodes,   1,Splitter,DHW LOOP SUPPLY SPLITTER,NODE 19,NODE 13,DHW LOOP,Supply
     Plant Loop Connector Branches,2,Splitter,DHW LOOP SUPPLY SPLITTER,DHW LOOP SUPPLY INLET BRANCH,DHW LOOP SUPPLY BRANCH 2,DHW LOOP,Supply
     Plant Loop Connector Nodes,   2,Splitter,DHW LOOP SUPPLY SPLITTER,NODE 19,NODE 20,DHW LOOP,Supply
   Plant Loop Connector,Mixer,DHW LOOP SUPPLY MIXER,DHW LOOP,Supply,2
     Plant Loop Connector Branches,1,Mixer,DHW LOOP SUPPLY MIXER,DHW LOOP SUPPLY BRANCH 1,DHW LOOP SUPPLY OUTLET BRANCH,DHW LOOP,Supply
     Plant Loop Connector Nodes,   1,Mixer,DHW LOOP SUPPLY MIXER,NODE 17,NODE 18,DHW LOOP,Supply
     Plant Loop Connector Branches,2,Mixer,DHW LOOP SUPPLY MIXER,DHW LOOP SUPPLY BRANCH 2,DHW LOOP SUPPLY OUTLET BRANCH,DHW LOOP,Supply
     Plant Loop Connector Nodes,   2,Mixer,DHW LOOP SUPPLY MIXER,NODE 21,NODE 18,DHW LOOP,Supply
 Plant Loop Supply Connection,DHW LOOP,NODE 12,NODE 14
 Plant Loop Return Connection,DHW LOOP,NODE 15,NODE 11
 Plant Loop,UNIT 2 DHW LOOP,Demand,UNIT 2 NODE 14,UNIT 2 NODE 15,UNIT 2 DHW LOOP DEMAND BRANCHES,UNIT 2 DHW LOOP DEMAND CONNECTOR LIST
   Plant Loop Connector,Splitter,UNIT 2 DHW LOOP DEMAND SPLITTER,UNIT 2 DHW LOOP,Demand,2
     Plant Loop Connector Branches,1,Splitter,UNIT 2 DHW LOOP DEMAND SPLITTER,UNIT 2 DHW LOOP DEMAND INLET BRANCH,UNIT 2 DHW LOOP DEMAND BRANCH 1,UNIT 2 DHW LOOP,Demand
     Plant Loop Connector Nodes,   1,Splitter,UNIT 2 DHW LOOP DEMAND SPLITTER,UNIT 2 DHW LOOP DEMAND INLET PIPE NODE,UNIT 2 NODE 16,UNIT 2 DHW LOOP,Demand
     Plant Loop Connector Branches,2,Splitter,UNIT 2 DHW LOOP DEMAND SPLITTER,UNIT 2 DHW LOOP DEMAND INLET BRANCH,UNIT 2 DHW LOOP DEMAND BYPASS BRANCH,UNIT 2 DHW LOOP,Demand
     Plant Loop Connector Nodes,   2,Splitter,UNIT 2 DHW LOOP DEMAND SPLITTER,UNIT 2 DHW LOOP DEMAND INLET PIPE NODE,UNIT 2 DHW LOOP DEMAND BYPASS PIPE INLET NODE,UNIT 2 DHW LOOP,Demand
   Plant Loop Connector,Mixer,UNIT 2 DHW LOOP DEMAND MIXER,UNIT 2 DHW LOOP,Demand,2
     Plant Loop Connector Branches,1,Mixer,UNIT 2 DHW LOOP DEMAND MIXER,UNIT 2 DHW LOOP DEMAND BRANCH 1,UNIT 2 DHW LOOP DEMAND OUTLET BRANCH,UNIT 2 DHW LOOP,Demand
     Plant Loop Connector Nodes,   1,Mixer,UNIT 2 DHW LOOP DEMAND MIXER,UNIT 2 NODE 22,UNIT 2 DHW LOOP DEMAND OUTLET PIPE NODE,UNIT 2 DHW LOOP,Demand
     Plant Loop Connector Branches,2,Mixer,UNIT 2 DHW LOOP DEMAND MIXER,UNIT 2 DHW LOOP DEMAND BYPASS BRANCH,UNIT 2 DHW LOOP DEMAND OUTLET BRANCH,UNIT 2 DHW LOOP,Demand
     Plant Loop Connector Nodes,   2,Mixer,UNIT 2 DHW LOOP DEMAND MIXER,UNIT 2 DHW LOOP DEMAND BYPASS PIPE OUTLET NODE,UNIT 2 DHW LOOP DEMAND OUTLET PIPE NODE,UNIT 2 DHW LOOP,Demand
 Plant Loop,UNIT 2 DHW LOOP,Supply,UNIT 2 NODE 11,UNIT 2 NODE 12,UNIT 2 DHW LOOP SUPPLY BRANCHES,UNIT 2 DHW LOOP SUPPLY CONNECTOR LIST
   Plant Loop Connector,Splitter,UNIT 2 DHW LOOP SUPPLY SPLITTER,UNIT 2 DHW LOOP,Supply,2
     Plant Loop Connector Branches,1,Splitter,UNIT 2 DHW LOOP SUPPLY SPLITTER,UNIT 2 DHW LOOP SUPPLY INLET BRANCH,UNIT 2 DHW LOOP SUPPLY BRANCH 1,UNIT 2 DHW LOOP,Supply
     Plant Loop Connector Nodes,   1,Splitter,UNIT 2 DHW LOOP SUPPLY SPLITTER,UNIT 2 NODE 19,UNIT 2 NODE 13,UNIT 2 DHW LOOP,Supply
     Plant Loop Connector Branches,2,Splitter,UNIT 2 DHW LOOP SUPPLY SPLITTER,UNIT 2 DHW LOOP SUPPLY INLET BRANCH,UNIT 2 DHW LOOP SUPPLY BRANCH 2,UNIT 2 DHW LOOP,Supply
     Plant Loop Connector Nodes,   2,Splitter,UNIT 2 DHW LOOP SUPPLY SPLITTER,UNIT 2 NODE 19,UNIT 2 NODE 20,UNIT 2 DHW LOOP,Supply
   Plant Loop Connector,Mixer,UNIT 2 DHW LOOP SUPPLY MIXER,UNIT 2 DHW LOOP,Supply,2
     Plant Loop Connector Branches,1,Mixer,UNIT 2 DHW LOOP SUPPLY MIXER,UNIT 2 DHW LOOP SUPPLY BRANCH 1,UNIT 2 DHW LOOP SUPPLY OUTLET BRANCH,UNIT 2 DHW LOOP,Supply
     Plant Loop Connector Nodes,   1,Mixer,UNIT 2 DHW LOOP SUPPLY MIXER,UNIT 2 NODE 17,UNIT 2 NODE 18,UNIT 2 DHW LOOP,Supply
     Plant Loop Connector Branches,2,Mixer,UNIT 2 DHW LOOP SUPPLY MIXER,UNIT 2 DHW LOOP SUPPLY BRANCH 2,UNIT 2 DHW LOOP SUPPLY OUTLET BRANCH,UNIT 2 DHW LOOP,Supply
     Plant Loop Connector Nodes,   2,Mixer,UNIT 2 DHW LOOP SUPPLY MIXER,UNIT 2 NODE 21,UNIT 2 NODE 18,UNIT 2 DHW LOOP,Supply
 Plant Loop Supply Connection,UNIT 2 DHW LOOP,UNIT 2 NODE 12,UNIT 2 NODE 14
 Plant Loop Return Connection,UNIT 2 DHW LOOP,UNIT 2 NODE 15,UNIT 2 NODE 11
 Plant Loop,UNIT 3 DHW LOOP,Demand,UNIT 3 NODE 14,UNIT 3 NODE 15,UNIT 3 DHW LOOP DEMAND BRANCHES,UNIT 3 DHW LOOP DEMAND CONNECTOR LIST
   Plant Loop Connector,Splitter,UNIT 3 DHW LOOP DEMAND SPLITTER,UNIT 3 DHW LOOP,Demand,2
     Plant Loop Connector Branches,1,Splitter,UNIT 3 DHW LOOP DEMAND SPLITTER,UNIT 3 DHW LOOP DEMAND INLET BRANCH,UNIT 3 DHW LOOP DEMAND BRANCH 1,UNIT 3 DHW LOOP,Demand
     Plant Loop Connector Nodes,   1,Splitter,UNIT 3 DHW LOOP DEMAND SPLITTER,UNIT 3 DHW LOOP DEMAND INLET PIPE NODE,UNIT 3 NODE 16,UNIT 3 DHW LOOP,Demand
     Plant Loop Connector Branches,2,Splitter,UNIT 3 DHW LOOP DEMAND SPLITTER,UNIT 3 DHW LOOP DEMAND INLET BRANCH,UNIT 3 DHW LOOP DEMAND BYPASS BRANCH,UNIT 3 DHW LOOP,Demand
     Plant Loop Connector Nodes,   2,Splitter,UNIT 3 DHW LOOP DEMAND SPLITTER,UNIT 3 DHW LOOP DEMAND INLET PIPE NODE,UNIT 3 DHW LOOP DEMAND BYPASS PIPE INLET NODE,UNIT 3 DHW LOOP,Demand
   Plant Loop Connector,Mixer,UNIT 3 DHW LOOP DEMAND MIXER,UNIT 3 DHW LOOP,Demand,2
     Plant Loop Connector Branches,1,Mixer,UNIT 3 DHW LOOP DEMAND MIXER,UNIT 3 DHW LOOP DEMAND BRANCH 1,UNIT 3 DHW LOOP DEMAND OUTLET BRANCH,UNIT 3 DHW LOOP,Demand
     Plant Loop Connector Nodes,   1,Mixer,UNIT 3 DHW LOOP DEMAND MIXER,UNIT 3 NODE 22,UNIT 3 DHW LOOP DEMAND OUTLET PIPE NODE,UNIT 3 DHW LOOP,Demand
     Plant Loop Connector Branches,2,Mixer,UNIT 3 DHW LOOP DEMAND MIXER,UNIT 3 DHW LOOP DEMAND BYPASS BRANCH,UNIT 3 DHW LOOP DEMAND OUTLET BRANCH,UNIT 3 DHW LOOP,Demand
     Plant Loop Connector Nodes,   2,Mixer,UNIT 3 DHW LOOP DEMAND MIXER,UNIT 3 DHW LOOP DEMAND BYPASS PIPE OUTLET NODE,UNIT 3 DHW LOOP DEMAND OUTLET PIPE NODE,UNIT 3 DHW LOOP,Demand
 Plant Loop,UNIT 3 DHW LOOP,Supply,UNIT 3 NODE 11,UNIT 3 NODE 12,UNIT 3 DHW LOOP SUPPLY BRANCHES,UNIT 3 DHW LOOP SUPPLY CONNECTOR LIST
   Plant Loop Connector,Splitter,UNIT 3 DHW LOOP SUPPLY SPLITTER,UNIT 3 DHW LOOP,Supply,2
     Plant Loop Connector Branches,1,Splitter,UNIT 3 DHW LOOP SUPPLY SPLITTER,UNIT 3 DHW LOOP SUPPLY INLET BRANCH,UNIT 3 DHW LOOP SUPPLY BRANCH 1,UNIT 3 DHW LOOP,Supply
     Plant Loop Connector Nodes,   1,Splitter,UNIT 3 DHW LOOP SUPPLY SPLITTER,UNIT 3 NODE 19,UNIT 3 NODE 13,UNIT 3 DHW LOOP,Supply
     Plant Loop Connector Branches,2,Splitter,UNIT 3 DHW LOOP SUPPLY SPLITTER,UNIT 3 DHW LOOP SUPPLY INLET BRANCH,UNIT 3 DHW LOOP SUPPLY BRANCH 2,UNIT 3 DHW LOOP,Supply
     Plant Loop Connector Nodes,   2,Splitter,UNIT 3 DHW LOOP SUPPLY SPLITTER,UNIT 3 NODE 19,UNIT 3 NODE 20,UNIT 3 DHW LOOP,Supply
   Plant Loop Connector,Mixer,UNIT 3 DHW LOOP SUPPLY MIXER,UNIT 3 DHW LOOP,Supply,2
     Plant Loop Connector Branches,1,Mixer,UNIT 3 DHW LOOP SUPPLY MIXER,UNIT 3 DHW LOOP SUPPLY BRANCH 1,UNIT 3 DHW LOOP SUPPLY OUTLET BRANCH,UNIT 3 DHW LOOP,Supply
     Plant Loop Connector Nodes,   1,Mixer,UNIT 3 DHW LOOP SUPPLY MIXER,UNIT 3 NODE 17,UNIT 3 NODE 18,UNIT 3 DHW LOOP,Supply
     Plant Loop Connector Branches,2,Mixer,UNIT 3 DHW LOOP SUPPLY MIXER,UNIT 3 DHW LOOP SUPPLY BRANCH 2,UNIT 3 DHW LOOP SUPPLY OUTLET BRANCH,UNIT 3 DHW LOOP,Supply
     Plant Loop Connector Nodes,   2,Mixer,UNIT 3 DHW LOOP SUPPLY MIXER,UNIT 3 NODE 21,UNIT 3 NODE 18,UNIT 3 DHW LOOP,Supply
 Plant Loop Supply Connection,UNIT 3 DHW LOOP,UNIT 3 NODE 12,UNIT 3 NODE 14
 Plant Loop Return Connection,UNIT 3 DHW LOOP,UNIT 3 NODE 15,UNIT 3 NODE 11
! ===============================================================
! <# Condenser Loops>,<Number of Condenser Loops>
 #Condenser Loops,0
! <Condenser Loop>,<Condenser Loop Name>,<Loop Type>,<Inlet Node Name>,<Outlet Node Name>,<Branch List>,<Connector List>
! <Condenser Loop Connector>,<Connector Type>,<Connector Name>,<Loop Name>,<Loop Type>,<Number of Inlets/Outlets>
! <Condenser Loop Connector Branches>,<Connector Node Count>,<Connector Type>,<Connector Name>,<Inlet Branch>,<Outlet Branch>,<Loop Name>,<Loop Type>
! <Condenser Loop Connector Nodes>,<Connector Node Count>,<Connector Type>,<Connector Name>,<Inlet Node>,<Outlet Node>,<Loop Name>,<Loop Type>
! <Condenser Loop Supply Connection>,<Condenser Loop Name>,<Supply Side Outlet Node Name>,<Demand Side Inlet Node Name>
! <Condenser Loop Return Connection>,<Condenser Loop Name>,<Demand Side Outlet Node Name>,<Supply Side Inlet Node Name>
! ===============================================================
! <# Controlled Zones>,<Number of Controlled Zones>
 #Controlled Zones,3
! <Controlled Zone>,<Controlled Zone Name>,<Equip List Name>,<Control List Name>,<Zone Node Name>,<# Inlet Nodes>,<# Exhaust Nodes>,<# Return Nodes>
! <Controlled Zone Inlet>,<Inlet Node Count>,<Controlled Zone Name>,<Supply Air Inlet Node Name>,<SD Sys:Cooling/Heating [DD:Cooling] Inlet Node Name>,<DD Sys:Heating Inlet Node Name>
! <Controlled Zone Exhaust>,<Exhaust Node Count>,<Controlled Zone Name>,<Exhaust Air Node Name>
 Controlled Zone,LIVING SPACE,LIVING SPACE EQUIPMENT LIST,,NODE 1,2,1,1
   Controlled Zone Inlet,1,LIVING SPACE,NODE 6,NODE 8,N/A
   Controlled Zone Inlet,2,LIVING SPACE,NODE 10,Undefined,N/A
   Controlled Zone Exhaust,1,LIVING SPACE,NODE 9
   Controlled Zone Return,1,LIVING SPACE,NODE 7
 Controlled Zone,UNIT 2 LIVING SPACE,UNIT 2 LIVING SPACE EQUIPMENT LIST,,UNIT 2 NODE 1,2,1,1
   Controlled Zone Inlet,1,UNIT 2 LIVING SPACE,UNIT 2 NODE 6,UNIT 2 NODE 8,N/A
   Controlled Zone Inlet,2,UNIT 2 LIVING SPACE,UNIT 2 NODE 10,Undefined,N/A
   Controlled Zone Exhaust,1,UNIT 2 LIVING SPACE,UNIT 2 NODE 9
   Controlled Zone Return,1,UNIT 2 LIVING SPACE,UNIT 2 NODE 7
 Controlled Zone,UNIT 3 LIVING SPACE,UNIT 3 LIVING SPACE EQUIPMENT LIST,,UNIT 3 NODE 1,2,1,1
   Controlled Zone Inlet,1,UNIT 3 LIVING SPACE,UNIT 3 NODE 6,UNIT 3 NODE 8,N/A
   Controlled Zone Inlet,2,UNIT 3 LIVING SPACE,UNIT 3 NODE 10,Undefined,N/A
   Controlled Zone Exhaust,1,UNIT 3 LIVING SPACE,UNIT 3 NODE 9
   Controlled Zone Return,1,UNIT 3 LIVING SPACE,UNIT 3 NODE 7
! ===============================================================
! <#Zone Equipment Lists>,<Number of Zone Equipment Lists>
 #Zone Equipment Lists,3
! <Zone Equipment List>,<Zone Equipment List Count>,<Zone Equipment List Name>,<Zone Name>,<Number of Components>
! <Zone Equipment Component>,<Component Count>,<Component Type>,<Component Name>,<Zone Name>,<Heating Priority>,<Cooling Priority>
 Zone Equipment List,2,LIVING SPACE EQUIPMENT LIST,LIVING SPACE,2
   Zone Equipment Component,1,ZONEHVAC:AIRDISTRIBUTIONUNIT,ADU CENTRAL AC AND FURNACE TERMINAL,LIVING SPACE,1,1
   Zone Equipment Component,2,ZONEHVAC:IDEALLOADSAIRSYSTEM,IDEAL RESIDUAL,LIVING SPACE,2,2
 Zone Equipment List,4,UNIT 2 LIVING SPACE EQUIPMENT LIST,UNIT 2 LIVING SPACE,2
   Zone Equipment Component,1,ZONEHVAC:AIRDISTRIBUTIONUNIT,ADU UNIT 2 CENTRAL AC AND FURNACE TERMINAL,UNIT 2 LIVING SPACE,1,1
   Zone Equipment Component,2,ZONEHVAC:IDEALLOADSAIRSYSTEM,UNIT 2 IDEAL RESIDUAL,UNIT 2 LIVING SPACE,2,2
 Zone Equipment List,6,UNIT 3 LIVING SPACE EQUIPMENT LIST,UNIT 3 LIVING SPACE,2
   Zone Equipment Component,1,ZONEHVAC:AIRDISTRIBUTIONUNIT,ADU UNIT 3 CENTRAL AC AND FURNACE TERMINAL,UNIT 3 LIVING SPACE,1,1
   Zone Equipment Component,2,ZONEHVAC:IDEALLOADSAIRSYSTEM,UNIT 3 IDEAL RESIDUAL,UNIT 3 LIVING SPACE,2,2
! ===============================================================
! <#AirLoopHVACs>,<Number of AirLoopHVACs>
 #AirLoopHVACs,3
! <AirLoopHVAC>,<Air Loop Name>,<# Return Nodes>,<# Supply Nodes>,<# Zones Cooled>,<# Zones Heated>,<Outdoor Air Used>
! <AirLoop Return Connections>,<Connection Count>,<AirLoopHVAC Name>,<Zn Eqp Return Node #>,<Zn Eqp Return Node Name>,<AirLoop Return Node #>,<Air Loop Return Node Name>
! <AirLoop Supply Connections>,<Connection Count>,<AirLoopHVAC Name>,<Zn Eqp Supply Node #>,<Zn Eqp Supply Node Name>,<AirLoop Supply Node #>,<Air Loop Supply Node Name>
! <Cooled Zone Info>,<Cooled Zone Count>,<Cooled Zone Name>,<Cooled Zone Inlet Node #>,<Cooled Zone Inlet Node Name>,<AirLoopHVAC Name>
! <Heated Zone Info>,<Heated Zone Count>,<Heated Zone Name>,<Heated Zone Inlet Node #>,<Heated Zone Inlet Node Name>,<AirLoopHVAC Name>
! <Outdoor Air Connections>,<OA Inlet Node #>,<OA Return Air Inlet Node Name>,<OA Outlet Node #>,<OA Mixed Air Outlet Node Name>,<AirLoopHVAC Name>
! <AirLoopHVAC Connector>,<Connector Type>,<Connector Name>,<Loop Name>,<Loop Type>,<Number of Inlets/Outlets>
! <AirLoopHVAC Connector Branches>,<Connector Node Count>,<Connector Type>,<Connector Name>,<Inlet Branch>,<Outlet Branch>,<Loop Name>,<Loop Type>
! <AirLoopHVAC Connector Nodes>,<Connector Node Count>,<Connector Type>,<Connector Name>,<Inlet Node>,<Outlet Node>,<Loop Name>,<Loop Type>
 AirLoopHVAC,CENTRAL AC AND FURNACE AIRLOOP,1,1,1,0,No
   AirLoop Return Connections,1,CENTRAL AC AND FURNACE AIRLOOP,73,NODE 5,19,NODE 2
   AirLoop Supply Connections,1,CENTRAL AC AND FURNACE AIRLOOP,14,NODE 4,13,NODE 3
   Cooled Zone Info,1,LIVING SPACE,1,NODE 6,CENTRAL AC AND FURNACE AIRLOOP
 AirLoopHVAC,UNIT 2 CENTRAL AC AND FURNACE AIRLOOP,1,1,1,0,No
   AirLoop Return Connections,1,UNIT 2 CENTRAL AC AND FURNACE AIRLOOP,74,UNIT 2 NODE 5,20,UNIT 2 NODE 2
   AirLoop Supply Connections,1,UNIT 2 CENTRAL AC AND FURNACE AIRLOOP,16,UNIT 2 NODE 4,15,UNIT 2 NODE 3
   Cooled Zone Info,1,UNIT 2 LIVING SPACE,5,UNIT 2 NODE 6,UNIT 2 CENTRAL AC AND FURNACE AIRLOOP
 AirLoopHVAC,UNIT 3 CENTRAL AC AND FURNACE AIRLOOP,1,1,1,0,No
   AirLoop Return Connections,1,UNIT 3 CENTRAL AC AND FURNACE AIRLOOP,75,UNIT 3 NODE 5,21,UNIT 3 NODE 2
   AirLoop Supply Connections,1,UNIT 3 CENTRAL AC AND FURNACE AIRLOOP,18,UNIT 3 NODE 4,17,UNIT 3 NODE 3
   Cooled Zone Info,1,UNIT 3 LIVING SPACE,9,UNIT 3 NODE 6,UNIT 3 CENTRAL AC AND FURNACE AIRLOOP
! ===============================================================
! <#Parent Node Connections>,<Number of Parent Node Connections>
 #Parent Node Connections,96
! <Parent Node Connection>,<Node Name>,<Node ObjectType>,<Node ObjectName>,<Node ConnectionType>,<Node FluidStream>
 Parent Node Connection,NODE 2,BRANCH,CENTRAL AC AND FURNACE AIRLOOP MAIN BRANCH,Inlet,1
 Parent Node Connection,NODE 3,BRANCH,CENTRAL AC AND FURNACE AIRLOOP MAIN BRANCH,Outlet,1
 Parent Node Connection,UNIT 2 NODE 2,BRANCH,UNIT 2 CENTRAL AC AND FURNACE AIRLOOP MAIN BRANCH,Inlet,1
 Parent Node Connection,UNIT 2 NODE 3,BRANCH,UNIT 2 CENTRAL AC AND FURNACE AIRLOOP MAIN BRANCH,Outlet,1
 Parent Node Connection,UNIT 3 NODE 2,BRANCH,UNIT 3 CENTRAL AC AND FURNACE AIRLOOP MAIN BRANCH,Inlet,1
 Parent Node Connection,UNIT 3 NODE 3,BRANCH,UNIT 3 CENTRAL AC AND FURNACE AIRLOOP MAIN BRANCH,Outlet,1
 Parent Node Connection,NODE 11,BRANCH,DHW LOOP SUPPLY INLET BRANCH,Inlet,1
 Parent Node Connection,NODE 19,BRANCH,DHW LOOP SUPPLY INLET BRANCH,Outlet,1
 Parent Node Connection,NODE 13,BRANCH,DHW LOOP SUPPLY BRANCH 1,Inlet,1
 Parent Node Connection,NODE 17,BRANCH,DHW LOOP SUPPLY BRANCH 1,Outlet,1
 Parent Node Connection,NODE 20,BRANCH,DHW LOOP SUPPLY BRANCH 2,Inlet,1
 Parent Node Connection,NODE 21,BRANCH,DHW LOOP SUPPLY BRANCH 2,Outlet,1
 Parent Node Connection,NODE 18,BRANCH,DHW LOOP SUPPLY OUTLET BRANCH,Inlet,1
 Parent Node Connection,NODE 12,BRANCH,DHW LOOP SUPPLY OUTLET BRANCH,Outlet,1
 Parent Node Connection,NODE 14,BRANCH,DHW LOOP DEMAND INLET BRANCH,Inlet,1
 Parent Node Connection,DHW LOOP DEMAND INLET PIPE NODE,BRANCH,DHW LOOP DEMAND INLET BRANCH,Outlet,1
 Parent Node Connection,NODE 16,BRANCH,DHW LOOP DEMAND BRANCH 1,Inlet,1
 Parent Node Connection,NODE 22,BRANCH,DHW LOOP DEMAND BRANCH 1,Outlet,1
 Parent Node Connection,DHW LOOP DEMAND BYPASS PIPE INLET NODE,BRANCH,DHW LOOP DEMAND BYPASS BRANCH,Inlet,1
 Parent Node Connection,DHW LOOP DEMAND BYPASS PIPE OUTLET NODE,BRANCH,DHW LOOP DEMAND BYPASS BRANCH,Outlet,1
 Parent Node Connection,DHW LOOP DEMAND OUTLET PIPE NODE,BRANCH,DHW LOOP DEMAND OUTLET BRANCH,Inlet,1
 Parent Node Connection,NODE 15,BRANCH,DHW LOOP DEMAND OUTLET BRANCH,Outlet,1
 Parent Node Connection,UNIT 2 NODE 11,BRANCH,UNIT 2 DHW LOOP SUPPLY INLET BRANCH,Inlet,1
 Parent Node Connection,UNIT 2 NODE 19,BRANCH,UNIT 2 DHW LOOP SUPPLY INLET BRANCH,Outlet,1
 Parent Node Connection,UNIT 2 NODE 13,BRANCH,UNIT 2 DHW LOOP SUPPLY BRANCH 1,Inlet,1
 Parent Node Connection,UNIT 2 NODE 17,BRANCH,UNIT 2 DHW LOOP SUPPLY BRANCH 1,Outlet,1
 Parent Node Connection,UNIT 2 NODE 20,BRANCH,UNIT 2 DHW LOOP SUPPLY BRANCH 2,Inlet,1
 Parent Node Connection,UNIT 2 NODE 21,BRANCH,UNIT 2 DHW LOOP SUPPLY BRANCH 2,Outlet,1
 Parent Node Connection,UNIT 2 NODE 18,BRANCH,UNIT 2 DHW LOOP SUPPLY OUTLET BRANCH,Inlet,1
 Parent Node Connection,UNIT 2 NODE 12,BRANCH,UNIT 2 DHW LOOP SUPPLY OUTLET BRANCH,Outlet,1
 Parent Node Connection,UNIT 2 NODE 14,BRANCH,UNIT 2 DHW LOOP DEMAND INLET BRANCH,Inlet,1
 Parent Node Connection,UNIT 2 DHW LOOP DEMAND INLET PIPE NODE,BRANCH,UNIT 2 DHW LOOP DEMAND INLET BRANCH,Outlet,1
 Parent Node Connection,UNIT 2 NODE 16,BRANCH,UNIT 2 DHW LOOP DEMAND BRANCH 1,Inlet,1
 Parent Node Connection,UNIT 2 NODE 22,BRANCH,UNIT 2 DHW LOOP DEMAND BRANCH 1,Outlet,1
 Parent Node Connection,UNIT 2 DHW LOOP DEMAND BYPASS PIPE INLET NODE,BRANCH,UNIT 2 DHW LOOP DEMAND BYPASS BRANCH,Inlet,1
 Parent Node Connection,UNIT 2 DHW LOOP DEMAND BYPASS PIPE OUTLET NODE,BRANCH,UNIT 2 DHW LOOP DEMAND BYPASS BRANCH,Outlet,1
 Parent Node Connection,UNIT 2 DHW LOOP DEMAND OUTLET PIPE NODE,BRANCH,UNIT 2 DHW LOOP DEMAND OUTLET BRANCH,Inlet,1
 Parent Node Connection,UNIT 2 NODE 15,BRANCH,UNIT 2 DHW LOOP DEMAND OUTLET BRANCH,Outlet,1
 Parent Node Connection,UNIT 3 NODE 11,BRANCH,UNIT 3 DHW LOOP SUPPLY INLET BRANCH,Inlet,1
 Parent Node Connection,UNIT 3 NODE 19,BRANCH,UNIT 3 DHW LOOP SUPPLY INLET BRANCH,Outlet,1
 Parent Node Connection,UNIT 3 NODE 13,BRANCH,UNIT 3 DHW LOOP SUPPLY BRANCH 1,Inlet,1
 Parent Node Connection,UNIT 3 NODE 17,BRANCH,UNIT 3 DHW LOOP SUPPLY BRANCH 1,Outlet,1
 Parent Node Connection,UNIT 3 NODE 20,BRANCH,UNIT 3 DHW LOOP SUPPLY BRANCH 2,Inlet,1
 Parent Node Connection,UNIT 3 NODE 21,BRANCH,UNIT 3 DHW LOOP SUPPLY BRANCH 2,Outlet,1
 Parent Node Connection,UNIT 3 NODE 18,BRANCH,UNIT 3 DHW LOOP SUPPLY OUTLET BRANCH,Inlet,1
 Parent Node Connection,UNIT 3 NODE 12,BRANCH,UNIT 3 DHW LOOP SUPPLY OUTLET BRANCH,Outlet,1
 Parent Node Connection,UNIT 3 NODE 14,BRANCH,UNIT 3 DHW LOOP DEMAND INLET BRANCH,Inlet,1
 Parent Node Connection,UNIT 3 DHW LOOP DEMAND INLET PIPE NODE,BRANCH,UNIT 3 DHW LOOP DEMAND INLET BRANCH,Outlet,1
 Parent Node Connection,UNIT 3 NODE 16,BRANCH,UNIT 3 DHW LOOP DEMAND BRANCH 1,Inlet,1
 Parent Node Connection,UNIT 3 NODE 22,BRANCH,UNIT 3 DHW LOOP DEMAND BRANCH 1,Outlet,1
 Parent Node Connection,UNIT 3 DHW LOOP DEMAND BYPASS PIPE INLET NODE,BRANCH,UNIT 3 DHW LOOP DEMAND BYPASS BRANCH,Inlet,1
 Parent Node Connection,UNIT 3 DHW LOOP DEMAND BYPASS PIPE OUTLET NODE,BRANCH,UNIT 3 DHW LOOP DEMAND BYPASS BRANCH,Outlet,1
 Parent Node Connection,UNIT 3 DHW LOOP DEMAND OUTLET PIPE NODE,BRANCH,UNIT 3 DHW LOOP DEMAND OUTLET BRANCH,Inlet,1
 Parent Node Connection,UNIT 3 NODE 15,BRANCH,UNIT 3 DHW LOOP DEMAND OUTLET BRANCH,Outlet,1
 Parent Node Connection,NODE 4,AIRLOOPHVAC:SUPPLYPATH,CENTRAL AC AND FURNACE AIRLOOP NODE 4 SUPPLY PATH,Inlet,1
 Parent Node Connection,UNIT 2 NODE 4,AIRLOOPHVAC:SUPPLYPATH,UNIT 2 CENTRAL AC AND FURNACE AIRLOOP UNIT 2 NODE 4 SUPPLY PATH,Inlet,1
 Parent Node Connection,UNIT 3 NODE 4,AIRLOOPHVAC:SUPPLYPATH,UNIT 3 CENTRAL AC AND FURNACE AIRLOOP UNIT 3 NODE 4 SUPPLY PATH,Inlet,1
 Parent Node Connection,NODE 5,AIRLOOPHVAC:RETURNPATH,CENTRAL AC AND FURNACE AIRLOOP RETURN PATH,Outlet,1
 Parent Node Connection,UNIT 2 NODE 5,AIRLOOPHVAC:RETURNPATH,UNIT 2 CENTRAL AC AND FURNACE AIRLOOP RETURN PATH,Outlet,1
 Parent Node Connection,UNIT 3 NODE 5,AIRLOOPHVAC:RETURNPATH,UNIT 3 CENTRAL AC AND FURNACE AIRLOOP RETURN PATH,Outlet,1
 Parent Node Connection,NODE 11,PLANTLOOP,DHW LOOP,Inlet,1
 Parent Node Connection,NODE 12,PLANTLOOP,DHW LOOP,Outlet,1
 Parent Node Connection,NODE 14,PLANTLOOP,DHW LOOP,Inlet,1
 Parent Node Connection,NODE 15,PLANTLOOP,DHW LOOP,Outlet,1
 Parent Node Connection,NODE 12,PLANTLOOP,DHW LOOP,Sensor,1
 Parent Node Connection,UNIT 2 NODE 11,PLANTLOOP,UNIT 2 DHW LOOP,Inlet,1
 Parent Node Connection,UNIT 2 NODE 12,PLANTLOOP,UNIT 2 DHW LOOP,Outlet,1
 Parent Node Connection,UNIT 2 NODE 14,PLANTLOOP,UNIT 2 DHW LOOP,Inlet,1
 Parent Node Connection,UNIT 2 NODE 15,PLANTLOOP,UNIT 2 DHW LOOP,Outlet,1
 Parent Node Connection,UNIT 2 NODE 12,PLANTLOOP,UNIT 2 DHW LOOP,Sensor,1
 Parent Node Connection,UNIT 3 NODE 11,PLANTLOOP,UNIT 3 DHW LOOP,Inlet,1
 Parent Node Connection,UNIT 3 NODE 12,PLANTLOOP,UNIT 3 DHW LOOP,Outlet,1
 Parent Node Connection,UNIT 3 NODE 14,PLANTLOOP,UNIT 3 DHW LOOP,Inlet,1
 Parent Node Connection,UNIT 3 NODE 15,PLANTLOOP,UNIT 3 DHW LOOP,Outlet,1
 Parent Node Connection,UNIT 3 NODE 12,PLANTLOOP,UNIT 3 DHW LOOP,Sensor,1
 Parent Node Connection,NODE 6,ZONEHVAC:AIRDISTRIBUTIONUNIT,ADU CENTRAL AC AND FURNACE TERMINAL,Outlet,1
 Parent Node Connection,UNIT 2 NODE 6,ZONEHVAC:AIRDISTRIBUTIONUNIT,ADU UNIT 2 CENTRAL AC AND FURNACE TERMINAL,Outlet,1
 Parent Node Connection,UNIT 3 NODE 6,ZONEHVAC:AIRDISTRIBUTIONUNIT,ADU UNIT 3 CENTRAL AC AND FURNACE TERMINAL,Outlet,1
 Parent Node Connection,NODE 2,AIRLOOPHVAC,CENTRAL AC AND FURNACE AIRLOOP,Inlet,1
 Parent Node Connection,NODE 5,AIRLOOPHVAC,CENTRAL AC AND FURNACE AIRLOOP,Outlet,1
 Parent Node Connection,NODE 4,AIRLOOPHVAC,CENTRAL AC AND FURNACE AIRLOOP,Inlet,1
 Parent Node Connection,NODE 3,AIRLOOPHVAC,CENTRAL AC AND FURNACE AIRLOOP,Outlet,1
 Parent Node Connection,UNIT 2 NODE 2,AIRLOOPHVAC,UNIT 2 CENTRAL AC AND FURNACE AIRLOOP,Inlet,1
 Parent Node Connection,UNIT 2 NODE 5,AIRLOOPHVAC,UNIT 2 CENTRAL AC AND FURNACE AIRLOOP,Outlet,1
 Parent Node Connection,UNIT 2 NODE 4,AIRLOOPHVAC,UNIT 2 CENTRAL AC AND FURNACE AIRLOOP,Inlet,1
 Parent Node Connection,UNIT 2 NODE 3,AIRLOOPHVAC,UNIT 2 CENTRAL AC AND FURNACE AIRLOOP,Outlet,1
 Parent Node Connection,UNIT 3 NODE 2,AIRLOOPHVAC,UNIT 3 CENTRAL AC AND FURNACE AIRLOOP,Inlet,1
 Parent Node Connection,UNIT 3 NODE 5,AIRLOOPHVAC,UNIT 3 CENTRAL AC AND FURNACE AIRLOOP,Outlet,1
 Parent Node Connection,UNIT 3 NODE 4,AIRLOOPHVAC,UNIT 3 CENTRAL AC AND FURNACE AIRLOOP,Inlet,1
 Parent Node Connection,UNIT 3 NODE 3,AIRLOOPHVAC,UNIT 3 CENTRAL AC AND FURNACE AIRLOOP,Outlet,1
 Parent Node Connection,NODE 2,AIRLOOPHVAC:UNITARYSYSTEM,CENTRAL AC AND FURNACE UNITARY SYSTEM,Inlet,1
 Parent Node Connection,NODE 3,AIRLOOPHVAC:UNITARYSYSTEM,CENTRAL AC AND FURNACE UNITARY SYSTEM,Outlet,1
 Parent Node Connection,UNIT 2 NODE 2,AIRLOOPHVAC:UNITARYSYSTEM,UNIT 2 CENTRAL AC AND FURNACE UNITARY SYSTEM,Inlet,1
 Parent Node Connection,UNIT 2 NODE 3,AIRLOOPHVAC:UNITARYSYSTEM,UNIT 2 CENTRAL AC AND FURNACE UNITARY SYSTEM,Outlet,1
 Parent Node Connection,UNIT 3 NODE 2,AIRLOOPHVAC:UNITARYSYSTEM,UNIT 3 CENTRAL AC AND FURNACE UNITARY SYSTEM,Inlet,1
 Parent Node Connection,UNIT 3 NODE 3,AIRLOOPHVAC:UNITARYSYSTEM,UNIT 3 CENTRAL AC AND FURNACE UNITARY SYSTEM,Outlet,1
! ===============================================================
! <#Non-Parent Node Connections>,<Number of Non-Parent Node Connections>
 #Non-Parent Node Connections,154
! <Non-Parent Node Connection>,<Node Name>,<Node ObjectType>,<Node ObjectName>,<Node ConnectionType>,<Node FluidStream>
 Non-Parent Node Connection,NODE 1,ZONEHVAC:EQUIPMENTCONNECTIONS,LIVING SPACE,ZoneNode,1
 Non-Parent Node Connection,NODE 6,ZONEHVAC:EQUIPMENTCONNECTIONS,LIVING SPACE,ZoneInlet,1
 Non-Parent Node Connection,NODE 10,ZONEHVAC:EQUIPMENTCONNECTIONS,LIVING SPACE,ZoneInlet,1
 Non-Parent Node Connection,NODE 9,ZONEHVAC:EQUIPMENTCONNECTIONS,LIVING SPACE,ZoneExhaust,1
 Non-Parent Node Connection,NODE 7,ZONEHVAC:EQUIPMENTCONNECTIONS,LIVING SPACE,ZoneReturn,1
 Non-Parent Node Connection,UNIT 2 NODE 1,ZONEHVAC:EQUIPMENTCONNECTIONS,UNIT 2 LIVING SPACE,ZoneNode,1
 Non-Parent Node Connection,UNIT 2 NODE 6,ZONEHVAC:EQUIPMENTCONNECTIONS,UNIT 2 LIVING SPACE,ZoneInlet,1
 Non-Parent Node Connection,UNIT 2 NODE 10,ZONEHVAC:EQUIPMENTCONNECTIONS,UNIT 2 LIVING SPACE,ZoneInlet,1
 Non-Parent Node Connection,UNIT 2 NODE 9,ZONEHVAC:EQUIPMENTCONNECTIONS,UNIT 2 LIVING SPACE,ZoneExhaust,1
 Non-Parent Node Connection,UNIT 2 NODE 7,ZONEHVAC:EQUIPMENTCONNECTIONS,UNIT 2 LIVING SPACE,ZoneReturn,1
 Non-Parent Node Connection,UNIT 3 NODE 1,ZONEHVAC:EQUIPMENTCONNECTIONS,UNIT 3 LIVING SPACE,ZoneNode,1
 Non-Parent Node Connection,UNIT 3 NODE 6,ZONEHVAC:EQUIPMENTCONNECTIONS,UNIT 3 LIVING SPACE,ZoneInlet,1
 Non-Parent Node Connection,UNIT 3 NODE 10,ZONEHVAC:EQUIPMENTCONNECTIONS,UNIT 3 LIVING SPACE,ZoneInlet,1
 Non-Parent Node Connection,UNIT 3 NODE 9,ZONEHVAC:EQUIPMENTCONNECTIONS,UNIT 3 LIVING SPACE,ZoneExhaust,1
 Non-Parent Node Connection,UNIT 3 NODE 7,ZONEHVAC:EQUIPMENTCONNECTIONS,UNIT 3 LIVING SPACE,ZoneReturn,1
 Non-Parent Node Connection,MODEL OUTDOOR AIR NODE,OUTDOORAIR:NODE,OutdoorAir:Node,OutdoorAir,1
 Non-Parent Node Connection,NODE 12,SETPOINTMANAGER:SCHEDULED,SETPOINT MANAGER SCHEDULED 1,Setpoint,1
 Non-Parent Node Connection,UNIT 2 NODE 12,SETPOINTMANAGER:SCHEDULED,UNIT 2 SETPOINT MANAGER SCHEDULED 1,Setpoint,1
 Non-Parent Node Connection,UNIT 3 NODE 12,SETPOINTMANAGER:SCHEDULED,UNIT 3 SETPOINT MANAGER SCHEDULED 1,Setpoint,1
 Non-Parent Node Connection,NODE 13,PIPE:ADIABATIC,PIPE ADIABATIC 1,Inlet,1
 Non-Parent Node Connection,NODE 17,PIPE:ADIABATIC,PIPE ADIABATIC 1,Outlet,1
 Non-Parent Node Connection,NODE 18,PIPE:ADIABATIC,PIPE ADIABATIC 2,Inlet,1
 Non-Parent Node Connection,NODE 12,PIPE:ADIABATIC,PIPE ADIABATIC 2,Outlet,1
 Non-Parent Node Connection,NODE 14,PIPE:ADIABATIC,DHW LOOP DEMAND INLET PIPE,Inlet,1
 Non-Parent Node Connection,DHW LOOP DEMAND INLET PIPE NODE,PIPE:ADIABATIC,DHW LOOP DEMAND INLET PIPE,Outlet,1
 Non-Parent Node Connection,DHW LOOP DEMAND BYPASS PIPE INLET NODE,PIPE:ADIABATIC,DHW LOOP DEMAND BYPASS PIPE,Inlet,1
 Non-Parent Node Connection,DHW LOOP DEMAND BYPASS PIPE OUTLET NODE,PIPE:ADIABATIC,DHW LOOP DEMAND BYPASS PIPE,Outlet,1
 Non-Parent Node Connection,DHW LOOP DEMAND OUTLET PIPE NODE,PIPE:ADIABATIC,DHW LOOP DEMAND OUTLET PIPE,Inlet,1
 Non-Parent Node Connection,NODE 15,PIPE:ADIABATIC,DHW LOOP DEMAND OUTLET PIPE,Outlet,1
 Non-Parent Node Connection,UNIT 2 NODE 13,PIPE:ADIABATIC,UNIT 2 PIPE ADIABATIC 1,Inlet,1
 Non-Parent Node Connection,UNIT 2 NODE 17,PIPE:ADIABATIC,UNIT 2 PIPE ADIABATIC 1,Outlet,1
 Non-Parent Node Connection,UNIT 2 NODE 18,PIPE:ADIABATIC,UNIT 2 PIPE ADIABATIC 2,Inlet,1
 Non-Parent Node Connection,UNIT 2 NODE 12,PIPE:ADIABATIC,UNIT 2 PIPE ADIABATIC 2,Outlet,1
 Non-Parent Node Connection,UNIT 2 NODE 14,PIPE:ADIABATIC,UNIT 2 DHW LOOP DEMAND INLET PIPE,Inlet,1
 Non-Parent Node Connection,UNIT 2 DHW LOOP DEMAND INLET PIPE NODE,PIPE:ADIABATIC,UNIT 2 DHW LOOP DEMAND INLET PIPE,Outlet,1
 Non-Parent Node Connection,UNIT 2 DHW LOOP DEMAND BYPASS PIPE INLET NODE,PIPE:ADIABATIC,UNIT 2 DHW LOOP DEMAND BYPASS PIPE,Inlet,1
 Non-Parent Node Connection,UNIT 2 DHW LOOP DEMAND BYPASS PIPE OUTLET NODE,PIPE:ADIABATIC,UNIT 2 DHW LOOP DEMAND BYPASS PIPE,Outlet,1
 Non-Parent Node Connection,UNIT 2 DHW LOOP DEMAND OUTLET PIPE NODE,PIPE:ADIABATIC,UNIT 2 DHW LOOP DEMAND OUTLET PIPE,Inlet,1
 Non-Parent Node Connection,UNIT 2 NODE 15,PIPE:ADIABATIC,UNIT 2 DHW LOOP DEMAND OUTLET PIPE,Outlet,1
 Non-Parent Node Connection,UNIT 3 NODE 13,PIPE:ADIABATIC,UNIT 3 PIPE ADIABATIC 1,Inlet,1
 Non-Parent Node Connection,UNIT 3 NODE 17,PIPE:ADIABATIC,UNIT 3 PIPE ADIABATIC 1,Outlet,1
 Non-Parent Node Connection,UNIT 3 NODE 18,PIPE:ADIABATIC,UNIT 3 PIPE ADIABATIC 2,Inlet,1
 Non-Parent Node Connection,UNIT 3 NODE 12,PIPE:ADIABATIC,UNIT 3 PIPE ADIABATIC 2,Outlet,1
 Non-Parent Node Connection,UNIT 3 NODE 14,PIPE:ADIABATIC,UNIT 3 DHW LOOP DEMAND INLET PIPE,Inlet,1
 Non-Parent Node Connection,UNIT 3 DHW LOOP DEMAND INLET PIPE NODE,PIPE:ADIABATIC,UNIT 3 DHW LOOP DEMAND INLET PIPE,Outlet,1
 Non-Parent Node Connection,UNIT 3 DHW LOOP DEMAND BYPASS PIPE INLET NODE,PIPE:ADIABATIC,UNIT 3 DHW LOOP DEMAND BYPASS PIPE,Inlet,1
 Non-Parent Node Connection,UNIT 3 DHW LOOP DEMAND BYPASS PIPE OUTLET NODE,PIPE:ADIABATIC,UNIT 3 DHW LOOP DEMAND BYPASS PIPE,Outlet,1
 Non-Parent Node Connection,UNIT 3 DHW LOOP DEMAND OUTLET PIPE NODE,PIPE:ADIABATIC,UNIT 3 DHW LOOP DEMAND OUTLET PIPE,Inlet,1
 Non-Parent Node Connection,UNIT 3 NODE 15,PIPE:ADIABATIC,UNIT 3 DHW LOOP DEMAND OUTLET PIPE,Outlet,1
 Non-Parent Node Connection,NODE 16,WATERUSE:CONNECTIONS,WATER USE CONNECTIONS 1,Inlet,1
 Non-Parent Node Connection,NODE 22,WATERUSE:CONNECTIONS,WATER USE CONNECTIONS 1,Outlet,1
 Non-Parent Node Connection,UNIT 2 NODE 16,WATERUSE:CONNECTIONS,UNIT 2 WATER USE CONNECTIONS 1,Inlet,1
 Non-Parent Node Connection,UNIT 2 NODE 22,WATERUSE:CONNECTIONS,UNIT 2 WATER USE CONNECTIONS 1,Outlet,1
 Non-Parent Node Connection,UNIT 3 NODE 16,WATERUSE:CONNECTIONS,UNIT 3 WATER USE CONNECTIONS 1,Inlet,1
 Non-Parent Node Connection,UNIT 3 NODE 22,WATERUSE:CONNECTIONS,UNIT 3 WATER USE CONNECTIONS 1,Outlet,1
 Non-Parent Node Connection,DHW LOOP DEMAND INLET PIPE NODE,CONNECTOR:SPLITTER,DHW LOOP DEMAND SPLITTER,Inlet,1
 Non-Parent Node Connection,NODE 16,CONNECTOR:SPLITTER,DHW LOOP DEMAND SPLITTER,Outlet,1
 Non-Parent Node Connection,DHW LOOP DEMAND BYPASS PIPE INLET NODE,CONNECTOR:SPLITTER,DHW LOOP DEMAND SPLITTER,Outlet,1
 Non-Parent Node Connection,DHW LOOP DEMAND OUTLET PIPE NODE,CONNECTOR:MIXER,DHW LOOP DEMAND MIXER,Outlet,1
 Non-Parent Node Connection,NODE 22,CONNECTOR:MIXER,DHW LOOP DEMAND MIXER,Inlet,1
 Non-Parent Node Connection,DHW LOOP DEMAND BYPASS PIPE OUTLET NODE,CONNECTOR:MIXER,DHW LOOP DEMAND MIXER,Inlet,1
 Non-Parent Node Connection,NODE 20,WATERHEATER:MIXED,WATER HEATER,Inlet,1
 Non-Parent Node Connection,NODE 21,WATERHEATER:MIXED,WATER HEATER,Outlet,1
 Non-Parent Node Connection,UNIT 2 NODE 20,WATERHEATER:MIXED,UNIT 2 WATER HEATER,Inlet,1
 Non-Parent Node Connection,UNIT 2 NODE 21,WATERHEATER:MIXED,UNIT 2 WATER HEATER,Outlet,1
 Non-Parent Node Connection,UNIT 3 NODE 20,WATERHEATER:MIXED,UNIT 3 WATER HEATER,Inlet,1
 Non-Parent Node Connection,UNIT 3 NODE 21,WATERHEATER:MIXED,UNIT 3 WATER HEATER,Outlet,1
 Non-Parent Node Connection,NODE 19,CONNECTOR:SPLITTER,DHW LOOP SUPPLY SPLITTER,Inlet,1
 Non-Parent Node Connection,NODE 13,CONNECTOR:SPLITTER,DHW LOOP SUPPLY SPLITTER,Outlet,1
 Non-Parent Node Connection,NODE 20,CONNECTOR:SPLITTER,DHW LOOP SUPPLY SPLITTER,Outlet,1
 Non-Parent Node Connection,NODE 18,CONNECTOR:MIXER,DHW LOOP SUPPLY MIXER,Outlet,1
 Non-Parent Node Connection,NODE 17,CONNECTOR:MIXER,DHW LOOP SUPPLY MIXER,Inlet,1
 Non-Parent Node Connection,NODE 21,CONNECTOR:MIXER,DHW LOOP SUPPLY MIXER,Inlet,1
 Non-Parent Node Connection,UNIT 2 DHW LOOP DEMAND INLET PIPE NODE,CONNECTOR:SPLITTER,UNIT 2 DHW LOOP DEMAND SPLITTER,Inlet,1
 Non-Parent Node Connection,UNIT 2 NODE 16,CONNECTOR:SPLITTER,UNIT 2 DHW LOOP DEMAND SPLITTER,Outlet,1
 Non-Parent Node Connection,UNIT 2 DHW LOOP DEMAND BYPASS PIPE INLET NODE,CONNECTOR:SPLITTER,UNIT 2 DHW LOOP DEMAND SPLITTER,Outlet,1
 Non-Parent Node Connection,UNIT 2 DHW LOOP DEMAND OUTLET PIPE NODE,CONNECTOR:MIXER,UNIT 2 DHW LOOP DEMAND MIXER,Outlet,1
 Non-Parent Node Connection,UNIT 2 NODE 22,CONNECTOR:MIXER,UNIT 2 DHW LOOP DEMAND MIXER,Inlet,1
 Non-Parent Node Connection,UNIT 2 DHW LOOP DEMAND BYPASS PIPE OUTLET NODE,CONNECTOR:MIXER,UNIT 2 DHW LOOP DEMAND MIXER,Inlet,1
 Non-Parent Node Connection,UNIT 2 NODE 19,CONNECTOR:SPLITTER,UNIT 2 DHW LOOP SUPPLY SPLITTER,Inlet,1
 Non-Parent Node Connection,UNIT 2 NODE 13,CONNECTOR:SPLITTER,UNIT 2 DHW LOOP SUPPLY SPLITTER,Outlet,1
 Non-Parent Node Connection,UNIT 2 NODE 20,CONNECTOR:SPLITTER,UNIT 2 DHW LOOP SUPPLY SPLITTER,Outlet,1
 Non-Parent Node Connection,UNIT 2 NODE 18,CONNECTOR:MIXER,UNIT 2 DHW LOOP SUPPLY MIXER,Outlet,1
 Non-Parent Node Connection,UNIT 2 NODE 17,CONNECTOR:MIXER,UNIT 2 DHW LOOP SUPPLY MIXER,Inlet,1
 Non-Parent Node Connection,UNIT 2 NODE 21,CONNECTOR:MIXER,UNIT 2 DHW LOOP SUPPLY MIXER,Inlet,1
 Non-Parent Node Connection,UNIT 3 DHW LOOP DEMAND INLET PIPE NODE,CONNECTOR:SPLITTER,UNIT 3 DHW LOOP DEMAND SPLITTER,Inlet,1
 Non-Parent Node Connection,UNIT 3 NODE 16,CONNECTOR:SPLITTER,UNIT 3 DHW LOOP DEMAND SPLITTER,Outlet,1
 Non-Parent Node Connection,UNIT 3 DHW LOOP DEMAND BYPASS PIPE INLET NODE,CONNECTOR:SPLITTER,UNIT 3 DHW LOOP DEMAND SPLITTER,Outlet,1
 Non-Parent Node Connection,UNIT 3 DHW LOOP DEMAND OUTLET PIPE NODE,CONNECTOR:MIXER,UNIT 3 DHW LOOP DEMAND MIXER,Outlet,1
 Non-Parent Node Connection,UNIT 3 NODE 22,CONNECTOR:MIXER,UNIT 3 DHW LOOP DEMAND MIXER,Inlet,1
 Non-Parent Node Connection,UNIT 3 DHW LOOP DEMAND BYPASS PIPE OUTLET NODE,CONNECTOR:MIXER,UNIT 3 DHW LOOP DEMAND MIXER,Inlet,1
 Non-Parent Node Connection,UNIT 3 NODE 19,CONNECTOR:SPLITTER,UNIT 3 DHW LOOP SUPPLY SPLITTER,Inlet,1
 Non-Parent Node Connection,UNIT 3 NODE 13,CONNECTOR:SPLITTER,UNIT 3 DHW LOOP SUPPLY SPLITTER,Outlet,1
 Non-Parent Node Connection,UNIT 3 NODE 20,CONNECTOR:SPLITTER,UNIT 3 DHW LOOP SUPPLY SPLITTER,Outlet,1
 Non-Parent Node Connection,UNIT 3 NODE 18,CONNECTOR:MIXER,UNIT 3 DHW LOOP SUPPLY MIXER,Outlet,1
 Non-Parent Node Connection,UNIT 3 NODE 17,CONNECTOR:MIXER,UNIT 3 DHW LOOP SUPPLY MIXER,Inlet,1
 Non-Parent Node Connection,UNIT 3 NODE 21,CONNECTOR:MIXER,UNIT 3 DHW LOOP SUPPLY MIXER,Inlet,1
 Non-Parent Node Connection,NODE 4,AIRLOOPHVAC:ZONESPLITTER,CENTRAL AC AND FURNACE ZONE SPLITTER,Inlet,1
 Non-Parent Node Connection,NODE 8,AIRLOOPHVAC:ZONESPLITTER,CENTRAL AC AND FURNACE ZONE SPLITTER,Outlet,1
 Non-Parent Node Connection,UNIT 2 NODE 4,AIRLOOPHVAC:ZONESPLITTER,UNIT 2 CENTRAL AC AND FURNACE ZONE SPLITTER,Inlet,1
 Non-Parent Node Connection,UNIT 2 NODE 8,AIRLOOPHVAC:ZONESPLITTER,UNIT 2 CENTRAL AC AND FURNACE ZONE SPLITTER,Outlet,1
 Non-Parent Node Connection,UNIT 3 NODE 4,AIRLOOPHVAC:ZONESPLITTER,UNIT 3 CENTRAL AC AND FURNACE ZONE SPLITTER,Inlet,1
 Non-Parent Node Connection,UNIT 3 NODE 8,AIRLOOPHVAC:ZONESPLITTER,UNIT 3 CENTRAL AC AND FURNACE ZONE SPLITTER,Outlet,1
 Non-Parent Node Connection,NODE 8,AIRTERMINAL:SINGLEDUCT:CONSTANTVOLUME:NOREHEAT,CENTRAL AC AND FURNACE TERMINAL,Inlet,1
 Non-Parent Node Connection,NODE 6,AIRTERMINAL:SINGLEDUCT:CONSTANTVOLUME:NOREHEAT,CENTRAL AC AND FURNACE TERMINAL,Outlet,1
 Non-Parent Node Connection,UNIT 2 NODE 8,AIRTERMINAL:SINGLEDUCT:CONSTANTVOLUME:NOREHEAT,UNIT 2 CENTRAL AC AND FURNACE TERMINAL,Inlet,1
 Non-Parent Node Connection,UNIT 2 NODE 6,AIRTERMINAL:SINGLEDUCT:CONSTANTVOLUME:NOREHEAT,UNIT 2 CENTRAL AC AND FURNACE TERMINAL,Outlet,1
 Non-Parent Node Connection,UNIT 3 NODE 8,AIRTERMINAL:SINGLEDUCT:CONSTANTVOLUME:NOREHEAT,UNIT 3 CENTRAL AC AND FURNACE TERMINAL,Inlet,1
 Non-Parent Node Connection,UNIT 3 NODE 6,AIRTERMINAL:SINGLEDUCT:CONSTANTVOLUME:NOREHEAT,UNIT 3 CENTRAL AC AND FURNACE TERMINAL,Outlet,1
 Non-Parent Node Connection,NODE 10,ZONEHVAC:IDEALLOADSAIRSYSTEM,IDEAL RESIDUAL,Outlet,1
 Non-Parent Node Connection,NODE 9,ZONEHVAC:IDEALLOADSAIRSYSTEM,IDEAL RESIDUAL,Inlet,1
 Non-Parent Node Connection,UNIT 2 NODE 10,ZONEHVAC:IDEALLOADSAIRSYSTEM,UNIT 2 IDEAL RESIDUAL,Outlet,1
 Non-Parent Node Connection,UNIT 2 NODE 9,ZONEHVAC:IDEALLOADSAIRSYSTEM,UNIT 2 IDEAL RESIDUAL,Inlet,1
 Non-Parent Node Connection,UNIT 3 NODE 10,ZONEHVAC:IDEALLOADSAIRSYSTEM,UNIT 3 IDEAL RESIDUAL,Outlet,1
 Non-Parent Node Connection,UNIT 3 NODE 9,ZONEHVAC:IDEALLOADSAIRSYSTEM,UNIT 3 IDEAL RESIDUAL,Inlet,1
 Non-Parent Node Connection,NODE 23,AIRLOOPHVAC:RETURNPLENUM,AIR LOOP HVAC RETURN PLENUM 1,ZoneNode,1
 Non-Parent Node Connection,NODE 25,AIRLOOPHVAC:RETURNPLENUM,AIR LOOP HVAC RETURN PLENUM 1,Outlet,1
 Non-Parent Node Connection,NODE 7,AIRLOOPHVAC:RETURNPLENUM,AIR LOOP HVAC RETURN PLENUM 1,Inlet,1
 Non-Parent Node Connection,UNIT 2 NODE 23,AIRLOOPHVAC:RETURNPLENUM,UNIT 2 AIR LOOP HVAC RETURN PLENUM 1,ZoneNode,1
 Non-Parent Node Connection,UNIT 2 NODE 25,AIRLOOPHVAC:RETURNPLENUM,UNIT 2 AIR LOOP HVAC RETURN PLENUM 1,Outlet,1
 Non-Parent Node Connection,UNIT 2 NODE 7,AIRLOOPHVAC:RETURNPLENUM,UNIT 2 AIR LOOP HVAC RETURN PLENUM 1,Inlet,1
 Non-Parent Node Connection,UNIT 3 NODE 23,AIRLOOPHVAC:RETURNPLENUM,UNIT 3 AIR LOOP HVAC RETURN PLENUM 1,ZoneNode,1
 Non-Parent Node Connection,UNIT 3 NODE 25,AIRLOOPHVAC:RETURNPLENUM,UNIT 3 AIR LOOP HVAC RETURN PLENUM 1,Outlet,1
 Non-Parent Node Connection,UNIT 3 NODE 7,AIRLOOPHVAC:RETURNPLENUM,UNIT 3 AIR LOOP HVAC RETURN PLENUM 1,Inlet,1
 Non-Parent Node Connection,NODE 5,AIRLOOPHVAC:ZONEMIXER,CENTRAL AC AND FURNACE ZONE MIXER,Outlet,1
 Non-Parent Node Connection,NODE 25,AIRLOOPHVAC:ZONEMIXER,CENTRAL AC AND FURNACE ZONE MIXER,Inlet,1
 Non-Parent Node Connection,UNIT 2 NODE 5,AIRLOOPHVAC:ZONEMIXER,UNIT 2 CENTRAL AC AND FURNACE ZONE MIXER,Outlet,1
 Non-Parent Node Connection,UNIT 2 NODE 25,AIRLOOPHVAC:ZONEMIXER,UNIT 2 CENTRAL AC AND FURNACE ZONE MIXER,Inlet,1
 Non-Parent Node Connection,UNIT 3 NODE 5,AIRLOOPHVAC:ZONEMIXER,UNIT 3 CENTRAL AC AND FURNACE ZONE MIXER,Outlet,1
 Non-Parent Node Connection,UNIT 3 NODE 25,AIRLOOPHVAC:ZONEMIXER,UNIT 3 CENTRAL AC AND FURNACE ZONE MIXER,Inlet,1
 Non-Parent Node Connection,NODE 2,FAN:ONOFF,CENTRAL AC AND FURNACE SUPPLY FAN,Inlet,1
 Non-Parent Node Connection,CENTRAL AC AND FURNACE UNITARY SYSTEM FAN - COOLING COIL NODE,FAN:ONOFF,CENTRAL AC AND FURNACE SUPPLY FAN,Outlet,1
 Non-Parent Node Connection,UNIT 2 NODE 2,FAN:ONOFF,UNIT 2 CENTRAL AC AND FURNACE SUPPLY FAN,Inlet,1
 Non-Parent Node Connection,UNIT 2 CENTRAL AC AND FURNACE UNITARY SYSTEM FAN - COOLING COIL NODE,FAN:ONOFF,UNIT 2 CENTRAL AC AND FURNACE SUPPLY FAN,Outlet,1
 Non-Parent Node Connection,UNIT 3 NODE 2,FAN:ONOFF,UNIT 3 CENTRAL AC AND FURNACE SUPPLY FAN,Inlet,1
 Non-Parent Node Connection,UNIT 3 CENTRAL AC AND FURNACE UNITARY SYSTEM FAN - COOLING COIL NODE,FAN:ONOFF,UNIT 3 CENTRAL AC AND FURNACE SUPPLY FAN,Outlet,1
 Non-Parent Node Connection,CENTRAL AC AND FURNACE UNITARY SYSTEM COOLING COIL - HEATING COIL NODE,COIL:HEATING:FUEL,CENTRAL AC AND FURNACE HTG COIL,Inlet,1
 Non-Parent Node Connection,NODE 3,COIL:HEATING:FUEL,CENTRAL AC AND FURNACE HTG COIL,Outlet,1
 Non-Parent Node Connection,UNIT 2 CENTRAL AC AND FURNACE UNITARY SYSTEM COOLING COIL - HEATING COIL NODE,COIL:HEATING:FUEL,UNIT 2 CENTRAL AC AND FURNACE HTG COIL,Inlet,1
 Non-Parent Node Connection,UNIT 2 NODE 3,COIL:HEATING:FUEL,UNIT 2 CENTRAL AC AND FURNACE HTG COIL,Outlet,1
 Non-Parent Node Connection,UNIT 3 CENTRAL AC AND FURNACE UNITARY SYSTEM COOLING COIL - HEATING COIL NODE,COIL:HEATING:FUEL,UNIT 3 CENTRAL AC AND FURNACE HTG COIL,Inlet,1
 Non-Parent Node Connection,UNIT 3 NODE 3,COIL:HEATING:FUEL,UNIT 3 CENTRAL AC AND FURNACE HTG COIL,Outlet,1
 Non-Parent Node Connection,CENTRAL AC AND FURNACE UNITARY SYSTEM FAN - COOLING COIL NODE,COIL:COOLING:DX:SINGLESPEED,CENTRAL AC AND FURNACE CLG COIL,Inlet,1
 Non-Parent Node Connection,CENTRAL AC AND FURNACE UNITARY SYSTEM COOLING COIL - HEATING COIL NODE,COIL:COOLING:DX:SINGLESPEED,CENTRAL AC AND FURNACE CLG COIL,Outlet,1
 Non-Parent Node Connection,UNIT 2 CENTRAL AC AND FURNACE UNITARY SYSTEM FAN - COOLING COIL NODE,COIL:COOLING:DX:SINGLESPEED,UNIT 2 CENTRAL AC AND FURNACE CLG COIL,Inlet,1
 Non-Parent Node Connection,UNIT 2 CENTRAL AC AND FURNACE UNITARY SYSTEM COOLING COIL - HEATING COIL NODE,COIL:COOLING:DX:SINGLESPEED,UNIT 2 CENTRAL AC AND FURNACE CLG COIL,Outlet,1
 Non-Parent Node Connection,UNIT 3 CENTRAL AC AND FURNACE UNITARY SYSTEM FAN - COOLING COIL NODE,COIL:COOLING:DX:SINGLESPEED,UNIT 3 CENTRAL AC AND FURNACE CLG COIL,Inlet,1
 Non-Parent Node Connection,UNIT 3 CENTRAL AC AND FURNACE UNITARY SYSTEM COOLING COIL - HEATING COIL NODE,COIL:COOLING:DX:SINGLESPEED,UNIT 3 CENTRAL AC AND FURNACE CLG COIL,Outlet,1
 Non-Parent Node Connection,NODE 11,PUMP:VARIABLESPEED,PUMP VARIABLE SPEED 1,Inlet,1
 Non-Parent Node Connection,NODE 19,PUMP:VARIABLESPEED,PUMP VARIABLE SPEED 1,Outlet,1
 Non-Parent Node Connection,UNIT 2 NODE 11,PUMP:VARIABLESPEED,UNIT 2 PUMP VARIABLE SPEED 1,Inlet,1
 Non-Parent Node Connection,UNIT 2 NODE 19,PUMP:VARIABLESPEED,UNIT 2 PUMP VARIABLE SPEED 1,Outlet,1
 Non-Parent Node Connection,UNIT 3 NODE 11,PUMP:VARIABLESPEED,UNIT 3 PUMP VARIABLE SPEED 1,Inlet,1
 Non-Parent Node Connection,UNIT 3 NODE 19,PUMP:VARIABLESPEED,UNIT 3 PUMP VARIABLE SPEED 1,Outlet,1
