{
   "completed_at" : "20210417T114312Z",
   "completed_status" : "Success",
   "current_step" : 16,
   "description" : "Queens Ln 17411 ",
   "eplusout_err" : "Program Version,EnergyPlus, Version 9.4.0-998c4b761e, YMD=2021.04.17 04:41,\n   ** Warning ** Timestep: Requested number (1) is less than the suggested minimum of 4.\n   **   ~~~   ** Please see entry for Timestep in Input/Output Reference for discussion of considerations.\n   ** Warning ** ProcessScheduleInput: Schedule:Constant=\"ALWAYS ON CONTINUOUS\", Blank Schedule Type Limits Name input -- will not be validated.\n   ** Warning ** CalculateZoneVolume: 3 zones are not fully enclosed. For more details use:  Output:Diagnostics,DisplayExtrawarnings; \n   ** Warning ** The Standard Ratings is calculated for Coil:Cooling:DX:SingleSpeed = CENTRAL AC AND FURNACE CLG COIL but not at the AHRI test condition due to curve out of bound.\n   **   ~~~   **  Review the Standard Ratings calculations in the Engineering Reference for this coil type. Also, use Output:Diagnostics, DisplayExtraWarnings for further guidance.\n   ** Warning ** The Standard Ratings is calculated for Coil:Cooling:DX:SingleSpeed = UNIT 2 CENTRAL AC AND FURNACE CLG COIL but not at the AHRI test condition due to curve out of bound.\n   **   ~~~   **  Review the Standard Ratings calculations in the Engineering Reference for this coil type. Also, use Output:Diagnostics, DisplayExtraWarnings for further guidance.\n   ** Warning ** The Standard Ratings is calculated for Coil:Cooling:DX:SingleSpeed = UNIT 3 CENTRAL AC AND FURNACE CLG COIL but not at the AHRI test condition due to curve out of bound.\n   **   ~~~   **  Review the Standard Ratings calculations in the Engineering Reference for this coil type. Also, use Output:Diagnostics, DisplayExtraWarnings for further guidance.\n   ** Warning ** Check input. Pump nominal power or motor efficiency is set to 0, for pump=PUMP VARIABLE SPEED 1\n   ** Warning ** Check input. Pump nominal power or motor efficiency is set to 0, for pump=UNIT 2 PUMP VARIABLE SPEED 1\n   ** Warning ** Check input. Pump nominal power or motor efficiency is set to 0, for pump=UNIT 3 PUMP VARIABLE SPEED 1\n   ** Warning ** Meter:Custom=\"HEATREJECTION:OTHERFUELS\", invalid Output Variable or Meter Name=\"HEATREJECTION:GASOLINE\".\n   **   ~~~   ** ...will not be shown with the Meter results.\n   ** Warning ** Meter:Custom=\"HEATREJECTION:OTHERFUELS\", invalid Output Variable or Meter Name=\"HEATREJECTION:DIESEL\".\n   **   ~~~   ** ...will not be shown with the Meter results.\n   ** Warning ** Meter:Custom=\"HEATREJECTION:OTHERFUELS\", invalid Output Variable or Meter Name=\"HEATREJECTION:COAL\".\n   **   ~~~   ** ...will not be shown with the Meter results.\n   ** Warning ** Meter:Custom=\"HEATREJECTION:OTHERFUELS\", invalid Output Variable or Meter Name=\"HEATREJECTION:FUELOILNO1\".\n   **   ~~~   ** ...will not be shown with the Meter results.\n   ** Warning ** Meter:Custom=\"HEATREJECTION:OTHERFUELS\", invalid Output Variable or Meter Name=\"HEATREJECTION:OTHERFUEL1\".\n   **   ~~~   ** ...will not be shown with the Meter results.\n   ** Warning ** Meter:Custom=\"HEATREJECTION:OTHERFUELS\", invalid Output Variable or Meter Name=\"HEATREJECTION:STEAM\".\n   **   ~~~   ** ...will not be shown with the Meter results.\n   ** Warning ** Meter:Custom=\"HEATREJECTION:OTHERFUELS\", no items assigned \n   **   ~~~   ** ...will not be shown with the Meter results. This may be caused by a Meter:Custom be assigned to another Meter:Custom.\n   ** Warning ** Meter:Custom=\"HEATING:OTHERFUELS\", invalid Output Variable or Meter Name=\"HEATING:GASOLINE\".\n   **   ~~~   ** ...will not be shown with the Meter results.\n   ** Warning ** Meter:Custom=\"HEATING:OTHERFUELS\", invalid Output Variable or Meter Name=\"HEATING:DIESEL\".\n   **   ~~~   ** ...will not be shown with the Meter results.\n   ** Warning ** Meter:Custom=\"HEATING:OTHERFUELS\", invalid Output Variable or Meter Name=\"HEATING:COAL\".\n   **   ~~~   ** ...will not be shown with the Meter results.\n   ** Warning ** Meter:Custom=\"HEATING:OTHERFUELS\", invalid Output Variable or Meter Name=\"HEATING:FUELOILNO1\".\n   **   ~~~   ** ...will not be shown with the Meter results.\n   ** Warning ** Meter:Custom=\"HEATING:OTHERFUELS\", invalid Output Variable or Meter Name=\"HEATING:OTHERFUEL1\".\n   **   ~~~   ** ...will not be shown with the Meter results.\n   ** Warning ** Meter:Custom=\"HEATING:OTHERFUELS\", invalid Output Variable or Meter Name=\"HEATING:STEAM\".\n   **   ~~~   ** ...will not be shown with the Meter results.\n   ** Warning ** Meter:Custom=\"HEATING:OTHERFUELS\", no items assigned \n   **   ~~~   ** ...will not be shown with the Meter results. This may be caused by a Meter:Custom be assigned to another Meter:Custom.\n   ** Warning ** Meter:Custom=\"WATERSYSTEMS:OTHERFUELS\", invalid Output Variable or Meter Name=\"WATERSYSTEMS:GASOLINE\".\n   **   ~~~   ** ...will not be shown with the Meter results.\n   ** Warning ** Meter:Custom=\"WATERSYSTEMS:OTHERFUELS\", invalid Output Variable or Meter Name=\"WATERSYSTEMS:DIESEL\".\n   **   ~~~   ** ...will not be shown with the Meter results.\n   ** Warning ** Meter:Custom=\"WATERSYSTEMS:OTHERFUELS\", invalid Output Variable or Meter Name=\"WATERSYSTEMS:COAL\".\n   **   ~~~   ** ...will not be shown with the Meter results.\n   ** Warning ** Meter:Custom=\"WATERSYSTEMS:OTHERFUELS\", invalid Output Variable or Meter Name=\"WATERSYSTEMS:FUELOILNO1\".\n   **   ~~~   ** ...will not be shown with the Meter results.\n   ** Warning ** Meter:Custom=\"WATERSYSTEMS:OTHERFUELS\", invalid Output Variable or Meter Name=\"WATERSYSTEMS:OTHERFUEL1\".\n   **   ~~~   ** ...will not be shown with the Meter results.\n   ** Warning ** Meter:Custom=\"WATERSYSTEMS:OTHERFUELS\", invalid Output Variable or Meter Name=\"WATERSYSTEMS:STEAM\".\n   **   ~~~   ** ...will not be shown with the Meter results.\n   ** Warning ** Meter:Custom=\"WATERSYSTEMS:OTHERFUELS\", no items assigned \n   **   ~~~   ** ...will not be shown with the Meter results. This may be caused by a Meter:Custom be assigned to another Meter:Custom.\n   ** Warning ** Meter:Custom=\"INTERIOREQUIPMENT:OTHERFUELS\", invalid Output Variable or Meter Name=\"INTERIOREQUIPMENT:GASOLINE\".\n   **   ~~~   ** ...will not be shown with the Meter results.\n   ** Warning ** Meter:Custom=\"INTERIOREQUIPMENT:OTHERFUELS\", invalid Output Variable or Meter Name=\"INTERIOREQUIPMENT:DIESEL\".\n   **   ~~~   ** ...will not be shown with the Meter results.\n   ** Warning ** Meter:Custom=\"INTERIOREQUIPMENT:OTHERFUELS\", invalid Output Variable or Meter Name=\"INTERIOREQUIPMENT:COAL\".\n   **   ~~~   ** ...will not be shown with the Meter results.\n   ** Warning ** Meter:Custom=\"INTERIOREQUIPMENT:OTHERFUELS\", invalid Output Variable or Meter Name=\"INTERIOREQUIPMENT:FUELOILNO1\".\n   **   ~~~   ** ...will not be shown with the Meter results.\n   ** Warning ** Meter:Custom=\"INTERIOREQUIPMENT:OTHERFUELS\", invalid Output Variable or Meter Name=\"INTERIOREQUIPMENT:OTHERFUEL1\".\n   **   ~~~   ** ...will not be shown with the Meter results.\n   ** Warning ** Meter:Custom=\"INTERIOREQUIPMENT:OTHERFUELS\", invalid Output Variable or Meter Name=\"INTERIOREQUIPMENT:STEAM\".\n   **   ~~~   ** ...will not be shown with the Meter results.\n   ** Warning ** Meter:Custom=\"INTERIOREQUIPMENT:OTHERFUELS\", no items assigned \n   **   ~~~   ** ...will not be shown with the Meter results. This may be caused by a Meter:Custom be assigned to another Meter:Custom.\n   ** Warning ** Meter:Custom=\"OTHERFUELS:FACILITY\", invalid Output Variable or Meter Name=\"HEATREJECTION:GASOLINE\".\n   **   ~~~   ** ...will not be shown with the Meter results.\n   ** Warning ** Meter:Custom=\"OTHERFUELS:FACILITY\", invalid Output Variable or Meter Name=\"HEATREJECTION:DIESEL\".\n   **   ~~~   ** ...will not be shown with the Meter results.\n   ** Warning ** Meter:Custom=\"OTHERFUELS:FACILITY\", invalid Output Variable or Meter Name=\"HEATREJECTION:COAL\".\n   **   ~~~   ** ...will not be shown with the Meter results.\n   ** Warning ** Meter:Custom=\"OTHERFUELS:FACILITY\", invalid Output Variable or Meter Name=\"HEATREJECTION:FUELOILNO1\".\n   **   ~~~   ** ...will not be shown with the Meter results.\n   ** Warning ** Meter:Custom=\"OTHERFUELS:FACILITY\", invalid Output Variable or Meter Name=\"HEATREJECTION:OTHERFUEL1\".\n   **   ~~~   ** ...will not be shown with the Meter results.\n   ** Warning ** Meter:Custom=\"OTHERFUELS:FACILITY\", invalid Output Variable or Meter Name=\"HEATREJECTION:STEAM\".\n   **   ~~~   ** ...will not be shown with the Meter results.\n   ** Warning ** Meter:Custom=\"OTHERFUELS:FACILITY\", invalid Output Variable or Meter Name=\"HEATING:GASOLINE\".\n   **   ~~~   ** ...will not be shown with the Meter results.\n   ** Warning ** Meter:Custom=\"OTHERFUELS:FACILITY\", invalid Output Variable or Meter Name=\"HEATING:DIESEL\".\n   **   ~~~   ** ...will not be shown with the Meter results.\n   ** Warning ** Meter:Custom=\"OTHERFUELS:FACILITY\", invalid Output Variable or Meter Name=\"HEATING:COAL\".\n   **   ~~~   ** ...will not be shown with the Meter results.\n   ** Warning ** Meter:Custom=\"OTHERFUELS:FACILITY\", invalid Output Variable or Meter Name=\"HEATING:FUELOILNO1\".\n   **   ~~~   ** ...will not be shown with the Meter results.\n   ** Warning ** Meter:Custom=\"OTHERFUELS:FACILITY\", invalid Output Variable or Meter Name=\"HEATING:OTHERFUEL1\".\n   **   ~~~   ** ...will not be shown with the Meter results.\n   ** Warning ** Meter:Custom=\"OTHERFUELS:FACILITY\", invalid Output Variable or Meter Name=\"HEATING:STEAM\".\n   **   ~~~   ** ...will not be shown with the Meter results.\n   ** Warning ** Meter:Custom=\"OTHERFUELS:FACILITY\", invalid Output Variable or Meter Name=\"WATERSYSTEMS:GASOLINE\".\n   **   ~~~   ** ...will not be shown with the Meter results.\n   ** Warning ** Meter:Custom=\"OTHERFUELS:FACILITY\", invalid Output Variable or Meter Name=\"WATERSYSTEMS:DIESEL\".\n   **   ~~~   ** ...will not be shown with the Meter results.\n   ** Warning ** Meter:Custom=\"OTHERFUELS:FACILITY\", invalid Output Variable or Meter Name=\"WATERSYSTEMS:COAL\".\n   **   ~~~   ** ...will not be shown with the Meter results.\n   ** Warning ** Meter:Custom=\"OTHERFUELS:FACILITY\", invalid Output Variable or Meter Name=\"WATERSYSTEMS:FUELOILNO1\".\n   **   ~~~   ** ...will not be shown with the Meter results.\n   ** Warning ** Meter:Custom=\"OTHERFUELS:FACILITY\", invalid Output Variable or Meter Name=\"WATERSYSTEMS:OTHERFUEL1\".\n   **   ~~~   ** ...will not be shown with the Meter results.\n   ** Warning ** Meter:Custom=\"OTHERFUELS:FACILITY\", invalid Output Variable or Meter Name=\"WATERSYSTEMS:STEAM\".\n   **   ~~~   ** ...will not be shown with the Meter results.\n   ** Warning ** Meter:Custom=\"OTHERFUELS:FACILITY\", invalid Output Variable or Meter Name=\"INTERIOREQUIPMENT:GASOLINE\".\n   **   ~~~   ** ...will not be shown with the Meter results.\n   ** Warning ** Meter:Custom=\"OTHERFUELS:FACILITY\", invalid Output Variable or Meter Name=\"INTERIOREQUIPMENT:DIESEL\".\n   **   ~~~   ** ...will not be shown with the Meter results.\n   ** Warning ** Meter:Custom=\"OTHERFUELS:FACILITY\", invalid Output Variable or Meter Name=\"INTERIOREQUIPMENT:COAL\".\n   **   ~~~   ** ...will not be shown with the Meter results.\n   ** Warning ** Meter:Custom=\"OTHERFUELS:FACILITY\", invalid Output Variable or Meter Name=\"INTERIOREQUIPMENT:FUELOILNO1\".\n   **   ~~~   ** ...will not be shown with the Meter results.\n   ** Warning ** Meter:Custom=\"OTHERFUELS:FACILITY\", invalid Output Variable or Meter Name=\"INTERIOREQUIPMENT:OTHERFUEL1\".\n   **   ~~~   ** ...will not be shown with the Meter results.\n   ** Warning ** Meter:Custom=\"OTHERFUELS:FACILITY\", invalid Output Variable or Meter Name=\"INTERIOREQUIPMENT:STEAM\".\n   **   ~~~   ** ...will not be shown with the Meter results.\n   ** Warning ** Meter:Custom=\"OTHERFUELS:FACILITY\", no items assigned \n   **   ~~~   ** ...will not be shown with the Meter results. This may be caused by a Meter:Custom be assigned to another Meter:Custom.\n   ** Warning ** Output:Meter: invalid Key Name=\"HEATING:FUELOILNO2\" - not found.\n   ** Warning ** Output:Meter: invalid Key Name=\"HEATING:PROPANE\" - not found.\n   ** Warning ** Output:Meter: invalid Key Name=\"HEATING:DISTRICTCOOLING\" - not found.\n   ** Warning ** Output:Meter: invalid Key Name=\"HEATING:WATER\" - not found.\n   ** Warning ** Output:Meter: invalid Key Name=\"COOLING:NATURALGAS\" - not found.\n   ** Warning ** Output:Meter: invalid Key Name=\"COOLING:FUELOILNO2\" - not found.\n   ** Warning ** Output:Meter: invalid Key Name=\"COOLING:PROPANE\" - not found.\n   ** Warning ** Output:Meter: invalid Key Name=\"COOLING:DISTRICTHEATING\" - not found.\n   ** Warning ** Output:Meter: invalid Key Name=\"COOLING:WATER\" - not found.\n   ** Warning ** Output:Meter: invalid Key Name=\"INTERIORLIGHTS:NATURALGAS\" - not found.\n   ** Warning ** Output:Meter: invalid Key Name=\"INTERIORLIGHTS:FUELOILNO2\" - not found.\n   ** Warning ** Output:Meter: invalid Key Name=\"INTERIORLIGHTS:PROPANE\" - not found.\n   ** Warning ** Output:Meter: invalid Key Name=\"INTERIORLIGHTS:DISTRICTCOOLING\" - not found.\n   ** Warning ** Output:Meter: invalid Key Name=\"INTERIORLIGHTS:DISTRICTHEATING\" - not found.\n   ** Warning ** Output:Meter: invalid Key Name=\"INTERIORLIGHTS:WATER\" - not found.\n   ** Warning ** Output:Meter: invalid Key Name=\"EXTERIORLIGHTS:NATURALGAS\" - not found.\n   ** Warning ** Output:Meter: invalid Key Name=\"EXTERIORLIGHTS:FUELOILNO2\" - not found.\n   ** Warning ** Output:Meter: invalid Key Name=\"EXTERIORLIGHTS:PROPANE\" - not found.\n   ** Warning ** Output:Meter: invalid Key Name=\"EXTERIORLIGHTS:DISTRICTCOOLING\" - not found.\n   ** Warning ** Output:Meter: invalid Key Name=\"EXTERIORLIGHTS:DISTRICTHEATING\" - not found.\n   ** Warning ** Output:Meter: invalid Key Name=\"EXTERIORLIGHTS:WATER\" - not found.\n   ** Warning ** Output:Meter: invalid Key Name=\"INTERIOREQUIPMENT:FUELOILNO2\" - not found.\n   ** Warning ** Output:Meter: invalid Key Name=\"INTERIOREQUIPMENT:PROPANE\" - not found.\n   ** Warning ** Output:Meter: invalid Key Name=\"INTERIOREQUIPMENT:DISTRICTCOOLING\" - not found.\n   ** Warning ** Output:Meter: invalid Key Name=\"INTERIOREQUIPMENT:DISTRICTHEATING\" - not found.\n   ** Warning ** Output:Meter: invalid Key Name=\"INTERIOREQUIPMENT:WATER\" - not found.\n   ** Warning ** Output:Meter: invalid Key Name=\"EXTERIOREQUIPMENT:ELECTRICITY\" - not found.\n   ** Warning ** Output:Meter: invalid Key Name=\"EXTERIOREQUIPMENT:NATURALGAS\" - not found.\n   ** Warning ** Output:Meter: invalid Key Name=\"EXTERIOREQUIPMENT:FUELOILNO2\" - not found.\n   ** Warning ** Output:Meter: invalid Key Name=\"EXTERIOREQUIPMENT:PROPANE\" - not found.\n   ** Warning ** Output:Meter: invalid Key Name=\"EXTERIOREQUIPMENT:DISTRICTCOOLING\" - not found.\n   ** Warning ** Output:Meter: invalid Key Name=\"EXTERIOREQUIPMENT:DISTRICTHEATING\" - not found.\n   ** Warning ** Output:Meter: invalid Key Name=\"EXTERIOREQUIPMENT:WATER\" - not found.\n   ** Warning ** Output:Meter: invalid Key Name=\"FANS:NATURALGAS\" - not found.\n   ** Warning ** Output:Meter: invalid Key Name=\"FANS:FUELOILNO2\" - not found.\n   ** Warning ** Output:Meter: invalid Key Name=\"FANS:PROPANE\" - not found.\n   ** Warning ** Output:Meter: invalid Key Name=\"FANS:DISTRICTCOOLING\" - not found.\n   ** Warning ** Output:Meter: invalid Key Name=\"FANS:DISTRICTHEATING\" - not found.\n   ** Warning ** Output:Meter: invalid Key Name=\"FANS:WATER\" - not found.\n   ** Warning ** Output:Meter: invalid Key Name=\"PUMPS:NATURALGAS\" - not found.\n   ** Warning ** Output:Meter: invalid Key Name=\"PUMPS:FUELOILNO2\" - not found.\n   ** Warning ** Output:Meter: invalid Key Name=\"PUMPS:PROPANE\" - not found.\n   ** Warning ** Output:Meter: invalid Key Name=\"PUMPS:DISTRICTCOOLING\" - not found.\n   ** Warning ** Output:Meter: invalid Key Name=\"PUMPS:DISTRICTHEATING\" - not found.\n   ** Warning ** Output:Meter: invalid Key Name=\"PUMPS:WATER\" - not found.\n   ** Warning ** Output:Meter: invalid Key Name=\"HEATREJECTION:ELECTRICITY\" - not found.\n   ** Warning ** Output:Meter: invalid Key Name=\"HEATREJECTION:NATURALGAS\" - not found.\n   ** Warning ** Output:Meter: invalid Key Name=\"HEATREJECTION:FUELOILNO2\" - not found.\n   ** Warning ** Output:Meter: invalid Key Name=\"HEATREJECTION:PROPANE\" - not found.\n   ** Warning ** Output:Meter: invalid Key Name=\"HEATREJECTION:DISTRICTCOOLING\" - not found.\n   ** Warning ** Output:Meter: invalid Key Name=\"HEATREJECTION:DISTRICTHEATING\" - not found.\n   ** Warning ** Output:Meter: invalid Key Name=\"HEATREJECTION:WATER\" - not found.\n   ** Warning ** Output:Meter: invalid Key Name=\"HUMIDIFIER:ELECTRICITY\" - not found.\n   ** Warning ** Output:Meter: invalid Key Name=\"HUMIDIFIER:NATURALGAS\" - not found.\n   ** Warning ** Output:Meter: invalid Key Name=\"HUMIDIFIER:FUELOILNO2\" - not found.\n   ** Warning ** Output:Meter: invalid Key Name=\"HUMIDIFIER:PROPANE\" - not found.\n   ** Warning ** Output:Meter: invalid Key Name=\"HUMIDIFIER:DISTRICTCOOLING\" - not found.\n   ** Warning ** Output:Meter: invalid Key Name=\"HUMIDIFIER:DISTRICTHEATING\" - not found.\n   ** Warning ** Output:Meter: invalid Key Name=\"HUMIDIFIER:WATER\" - not found.\n   ** Warning ** Output:Meter: invalid Key Name=\"HEATRECOVERY:ELECTRICITY\" - not found.\n   ** Warning ** Output:Meter: invalid Key Name=\"HEATRECOVERY:NATURALGAS\" - not found.\n   ** Warning ** Output:Meter: invalid Key Name=\"HEATRECOVERY:FUELOILNO2\" - not found.\n   ** Warning ** Output:Meter: invalid Key Name=\"HEATRECOVERY:PROPANE\" - not found.\n   ** Warning ** Output:Meter: invalid Key Name=\"HEATRECOVERY:DISTRICTCOOLING\" - not found.\n   ** Warning ** Output:Meter: invalid Key Name=\"HEATRECOVERY:DISTRICTHEATING\" - not found.\n   ** Warning ** Output:Meter: invalid Key Name=\"HEATRECOVERY:WATER\" - not found.\n   ** Warning ** Output:Meter: invalid Key Name=\"WATERSYSTEMS:FUELOILNO2\" - not found.\n   ** Warning ** Output:Meter: invalid Key Name=\"WATERSYSTEMS:PROPANE\" - not found.\n   ** Warning ** Output:Meter: invalid Key Name=\"WATERSYSTEMS:DISTRICTCOOLING\" - not found.\n   ** Warning ** Output:Meter: invalid Key Name=\"WATERSYSTEMS:DISTRICTHEATING\" - not found.\n   ** Warning ** Output:Meter: invalid Key Name=\"REFRIGERATION:ELECTRICITY\" - not found.\n   ** Warning ** Output:Meter: invalid Key Name=\"REFRIGERATION:NATURALGAS\" - not found.\n   ** Warning ** Output:Meter: invalid Key Name=\"REFRIGERATION:FUELOILNO2\" - not found.\n   ** Warning ** Output:Meter: invalid Key Name=\"REFRIGERATION:PROPANE\" - not found.\n   ** Warning ** Output:Meter: invalid Key Name=\"REFRIGERATION:DISTRICTCOOLING\" - not found.\n   ** Warning ** Output:Meter: invalid Key Name=\"REFRIGERATION:DISTRICTHEATING\" - not found.\n   ** Warning ** Output:Meter: invalid Key Name=\"REFRIGERATION:WATER\" - not found.\n   ** Warning ** Output:Meter: invalid Key Name=\"GENERATORS:ELECTRICITY\" - not found.\n   ** Warning ** Output:Meter: invalid Key Name=\"GENERATORS:NATURALGAS\" - not found.\n   ** Warning ** Output:Meter: invalid Key Name=\"GENERATORS:FUELOILNO2\" - not found.\n   ** Warning ** Output:Meter: invalid Key Name=\"GENERATORS:PROPANE\" - not found.\n   ** Warning ** Output:Meter: invalid Key Name=\"GENERATORS:DISTRICTCOOLING\" - not found.\n   ** Warning ** Output:Meter: invalid Key Name=\"GENERATORS:DISTRICTHEATING\" - not found.\n   ** Warning ** Output:Meter: invalid Key Name=\"GENERATORS:WATER\" - not found.\n   ** Warning ** Output:Meter: invalid Key Name=\"FUELOILNO2:FACILITY\" - not found.\n   ** Warning ** Output:Meter: invalid Key Name=\"PROPANE:FACILITY\" - not found.\n   ** Warning ** Output:Meter: invalid Key Name=\"HEATREJECTION:GASOLINE\" - not found.\n   ** Warning ** Output:Meter: invalid Key Name=\"HEATREJECTION:DIESEL\" - not found.\n   ** Warning ** Output:Meter: invalid Key Name=\"HEATREJECTION:COAL\" - not found.\n   ** Warning ** Output:Meter: invalid Key Name=\"HEATREJECTION:FUELOILNO1\" - not found.\n   ** Warning ** Output:Meter: invalid Key Name=\"HEATREJECTION:OTHERFUEL1\" - not found.\n   ** Warning ** Output:Meter: invalid Key Name=\"HEATREJECTION:STEAM\" - not found.\n   ** Warning ** Output:Meter: invalid Key Name=\"HEATREJECTION:OTHERFUELS\" - not found.\n   ** Warning ** Output:Meter: invalid Key Name=\"HEATING:GASOLINE\" - not found.\n   ** Warning ** Output:Meter: invalid Key Name=\"HEATING:DIESEL\" - not found.\n   ** Warning ** Output:Meter: invalid Key Name=\"HEATING:COAL\" - not found.\n   ** Warning ** Output:Meter: invalid Key Name=\"HEATING:FUELOILNO1\" - not found.\n   ** Warning ** Output:Meter: invalid Key Name=\"HEATING:OTHERFUEL1\" - not found.\n   ** Warning ** Output:Meter: invalid Key Name=\"HEATING:STEAM\" - not found.\n   ** Warning ** Output:Meter: invalid Key Name=\"HEATING:OTHERFUELS\" - not found.\n   ** Warning ** Output:Meter: invalid Key Name=\"WATERSYSTEMS:GASOLINE\" - not found.\n   ** Warning ** Output:Meter: invalid Key Name=\"WATERSYSTEMS:DIESEL\" - not found.\n   ** Warning ** Output:Meter: invalid Key Name=\"WATERSYSTEMS:COAL\" - not found.\n   ** Warning ** Output:Meter: invalid Key Name=\"WATERSYSTEMS:FUELOILNO1\" - not found.\n   ** Warning ** Output:Meter: invalid Key Name=\"WATERSYSTEMS:OTHERFUEL1\" - not found.\n   ** Warning ** Output:Meter: invalid Key Name=\"WATERSYSTEMS:STEAM\" - not found.\n   ** Warning ** Output:Meter: invalid Key Name=\"WATERSYSTEMS:OTHERFUELS\" - not found.\n   ** Warning ** Output:Meter: invalid Key Name=\"INTERIOREQUIPMENT:GASOLINE\" - not found.\n   ** Warning ** Output:Meter: invalid Key Name=\"INTERIOREQUIPMENT:DIESEL\" - not found.\n   ** Warning ** Output:Meter: invalid Key Name=\"INTERIOREQUIPMENT:COAL\" - not found.\n   ** Warning ** Output:Meter: invalid Key Name=\"INTERIOREQUIPMENT:FUELOILNO1\" - not found.\n   ** Warning ** Output:Meter: invalid Key Name=\"INTERIOREQUIPMENT:OTHERFUEL1\" - not found.\n   ** Warning ** Output:Meter: invalid Key Name=\"INTERIOREQUIPMENT:STEAM\" - not found.\n   ** Warning ** Output:Meter: invalid Key Name=\"INTERIOREQUIPMENT:OTHERFUELS\" - not found.\n   ** Warning ** Output:Meter: invalid Key Name=\"OTHERFUELS:FACILITY\" - not found.\n   ** Warning ** Output:Meter:MeterFileOnly requested for \"Electricity:Facility\" (TimeStep), already on \"Output:Meter\". Will report to both eplusout.eso and eplusout.mtr\n   ** Warning ** Output:Meter:MeterFileOnly: invalid Key Name=\"ELECTRICITYPRODUCED:FACILITY\" - not found.\n   ** Warning ** Output:Meter:MeterFileOnly requested for \"NaturalGas:Facility\" (TimeStep), already on \"Output:Meter\". Will report to both eplusout.eso and eplusout.mtr\n   ** Warning ** Output:Meter:MeterFileOnly requested for \"DistrictCooling:Facility\" (TimeStep), already on \"Output:Meter\". Will report to both eplusout.eso and eplusout.mtr\n   ** Warning ** Output:Meter:MeterFileOnly requested for \"DistrictHeating:Facility\" (TimeStep), already on \"Output:Meter\". Will report to both eplusout.eso and eplusout.mtr\n   ************* Testing Individual Branch Integrity\n   ************* All Branches passed integrity testing\n   ************* Testing Individual Supply Air Path Integrity\n   ************* All Supply Air Paths passed integrity testing\n   ************* Testing Individual Return Air Path Integrity\n   ************* All Return Air Paths passed integrity testing\n   ************* No node connection errors were found.\n   ************* Beginning Simulation\n   ** Warning ** Processing Monthly Tabular Reports: Variable names not valid for this simulation\n   **   ~~~   ** ...use Output:Diagnostics,DisplayExtraWarnings; to show more details on individual variables.\n   ** Warning ** CalcDoe2DXCoil: Coil:Cooling:DX:SingleSpeed=\"CENTRAL AC AND FURNACE CLG COIL\" - Air volume flow rate per watt of rated total cooling capacity is out of range at 6.827E-005 m3/s/W.\n   **   ~~~   **  Environment=RUN PERIOD 1, at Simulation time=01/01 11:00 - 12:00\n   **   ~~~   ** Expected range for VolumeFlowPerRatedTotalCapacity=[2.684E-005--6.713E-005]\n   **   ~~~   ** Possible causes include inconsistent air flow rates in system components,\n   **   ~~~   ** or variable air volume [VAV] system using incorrect coil type.\n   ** Warning ** CalcDoe2DXCoil: Coil:Cooling:DX:SingleSpeed=\"UNIT 2 CENTRAL AC AND FURNACE CLG COIL\" - Air volume flow rate per watt of rated total cooling capacity is out of range at 6.832E-005 m3/s/W.\n   **   ~~~   **  Environment=RUN PERIOD 1, at Simulation time=01/01 11:00 - 12:00\n   **   ~~~   ** Expected range for VolumeFlowPerRatedTotalCapacity=[2.684E-005--6.713E-005]\n   **   ~~~   ** Possible causes include inconsistent air flow rates in system components,\n   **   ~~~   ** or variable air volume [VAV] system using incorrect coil type.\n   ** Warning ** CalcDoe2DXCoil: Coil:Cooling:DX:SingleSpeed=\"UNIT 3 CENTRAL AC AND FURNACE CLG COIL\" - Air volume flow rate per watt of rated total cooling capacity is out of range at 6.821E-005 m3/s/W.\n   **   ~~~   **  Environment=RUN PERIOD 1, at Simulation time=01/01 11:00 - 12:00\n   **   ~~~   ** Expected range for VolumeFlowPerRatedTotalCapacity=[2.684E-005--6.713E-005]\n   **   ~~~   ** Possible causes include inconsistent air flow rates in system components,\n   **   ~~~   ** or variable air volume [VAV] system using incorrect coil type.\n   ** Warning ** GetCurrentScheduleValue: Schedule=\"CLOTHES_DRYER_EXHAUST\" is a Schedule:File\n   **   ~~~   ** ...Use of Schedule:File when DaylightSavingTime is in effect is not recommended.\n   **   ~~~   ** ...1) Remove RunperiodControl:DaylightSavingTime object or remove DST period from Weather File.\n   **   ~~~   ** ...2) Configure other schedules and Schedule:File to account for occupant behavior during DST.\n   **   ~~~   ** ...   If you have already done this, you can ignore this message.\n   **   ~~~   ** ...When active, DaylightSavingTime will shift all scheduled items by one hour, retaining the same day type as the original.\n   ** Warning ** The resource referenced by LifeCycleCost:UsePriceEscalation= \"U.S. AVG  COMMERCIAL-ELECTRICITY\" has no energy cost. \n   **   ~~~   ** ... It is likely that the wrong resource is used. The resource should match the meter used in Utility:Tariff.\n   ** Warning ** The resource referenced by LifeCycleCost:UsePriceEscalation= \"U.S. AVG  COMMERCIAL-DISTILLATE OIL\" has no energy cost. \n   **   ~~~   ** ... It is likely that the wrong resource is used. The resource should match the meter used in Utility:Tariff.\n   ** Warning ** The resource referenced by LifeCycleCost:UsePriceEscalation= \"U.S. AVG  COMMERCIAL-RESIDUAL OIL\" has no energy cost. \n   **   ~~~   ** ... It is likely that the wrong resource is used. The resource should match the meter used in Utility:Tariff.\n   ** Warning ** The resource referenced by LifeCycleCost:UsePriceEscalation= \"U.S. AVG  COMMERCIAL-NATURAL GAS\" has no energy cost. \n   **   ~~~   ** ... It is likely that the wrong resource is used. The resource should match the meter used in Utility:Tariff.\n   ** Warning ** The resource referenced by LifeCycleCost:UsePriceEscalation= \"U.S. AVG  COMMERCIAL-COAL\" has no energy cost. \n   **   ~~~   ** ... It is likely that the wrong resource is used. The resource should match the meter used in Utility:Tariff.\n   ************* Simulation Error Summary *************\n   ** Warning ** The following Report Variables were requested but not generated -- check.rdd file\n   **   ~~~   ** Either the IDF did not contain these elements, the variable name is misspelled,\n   **   ~~~   ** or the requested variable is an advanced output which requires Output : Diagnostics, DisplayAdvancedReportVariables;\n   ************* Key=*, VarName=DISTRICT COOLING CHILLED WATER RATE, Frequency=TimeStep\n   ************* Key=*, VarName=DISTRICT COOLING MASS FLOW RATE, Frequency=TimeStep\n   ************* Key=*, VarName=DISTRICT COOLING INLET TEMPERATURE, Frequency=TimeStep\n   ************* Key=*, VarName=DISTRICT COOLING OUTLET TEMPERATURE, Frequency=TimeStep\n   ************* Key=*, VarName=DISTRICT HEATING HOT WATER RATE, Frequency=TimeStep\n   ************* Key=*, VarName=DISTRICT HEATING MASS FLOW RATE, Frequency=TimeStep\n   ************* Key=*, VarName=DISTRICT HEATING INLET TEMPERATURE, Frequency=TimeStep\n   ************* Key=*, VarName=DISTRICT HEATING OUTLET TEMPERATURE, Frequency=TimeStep\n   ************* Key=*, VarName=EXTERIOREQUIPMENT:ELECTRICITY, Frequency=TimeStep\n   ************* Key=*, VarName=ICE THERMAL STORAGE END FRACTION, Frequency=TimeStep\n   ************* Key=*, VarName=COOLING COIL ICE THERMAL STORAGE END FRACTION, Frequency=TimeStep\n   ************* There are 18 unused schedules in input.\n   ************* There are 148 unused week schedules in input.\n   ************* There are 133 unused day schedules in input.\n   ************* Use Output:Diagnostics,DisplayUnusedSchedules; to see them.\n   *************\n   ************* ===== Recurring Error Summary =====\n   ************* The following recurring error messages occurred.\n   *************\n   *************  ** Warning ** CalcDoe2DXCoil: Coil:Cooling:DX:SingleSpeed=\"CENTRAL AC AND FURNACE CLG COIL\" - Air volume flow rate per watt of rated total cooling capacity is out of range error continues...\n   *************  **   ~~~   **   This error occurred 29712 total times;\n   *************  **   ~~~   **   during Warmup 0 times;\n   *************  **   ~~~   **   during Sizing 0 times.\n   *************  **   ~~~   **   Max=6.973090E-005  Min=6.744210E-005\n   *************\n   *************  ** Warning ** CalcDoe2DXCoil: Coil:Cooling:DX:SingleSpeed=\"UNIT 2 CENTRAL AC AND FURNACE CLG COIL\" - Air volume flow rate per watt of rated total cooling capacity is out of range error continues...\n   *************  **   ~~~   **   This error occurred 29824 total times;\n   *************  **   ~~~   **   during Warmup 0 times;\n   *************  **   ~~~   **   during Sizing 0 times.\n   *************  **   ~~~   **   Max=6.976316E-005  Min=6.748740E-005\n   *************\n   *************  ** Warning ** CalcDoe2DXCoil: Coil:Cooling:DX:SingleSpeed=\"UNIT 3 CENTRAL AC AND FURNACE CLG COIL\" - Air volume flow rate per watt of rated total cooling capacity is out of range error continues...\n   *************  **   ~~~   **   This error occurred 29108 total times;\n   *************  **   ~~~   **   during Warmup 0 times;\n   *************  **   ~~~   **   during Sizing 0 times.\n   *************  **   ~~~   **   Max=6.972801E-005  Min=6.739550E-005\n   *************\n   ************* EnergyPlus Warmup Error Summary. During Warmup: 0 Warning; 0 Severe Errors.\n   ************* EnergyPlus Sizing Error Summary. During Sizing: 0 Warning; 0 Severe Errors.\n   ************* EnergyPlus Completed Successfully-- 88834 Warning; 0 Severe Errors; Elapsed Time=00hr 00min  8.09sec\n",
   "file_paths" : 
   [
      "/Users/kcu/Desktop/Scripting/NREL_Work/UCI/Github/urbanopt-example-geojson-project/UCI_MultiFamily_test/run/baseline_scenario_res_test/20/generated_files",
      "/Users/kcu/Desktop/Scripting/NREL_Work/UCI/Github/urbanopt-example-geojson-project/UCI_MultiFamily_test/mappers/../weather/",
      "/Users/kcu/.rbenv/versions/2.5.5/lib/ruby/gems/2.5.0/gems/openstudio-calibration-0.3.1/lib/files",
      "/Users/kcu/.rbenv/versions/2.5.5/lib/ruby/gems/2.5.0/gems/openstudio-common-measures-0.3.2/lib/files",
      "/Users/kcu/.rbenv/versions/2.5.5/lib/ruby/gems/2.5.0/gems/openstudio-ee-0.3.2/lib/files",
      "/Users/kcu/.rbenv/versions/2.5.5/lib/ruby/gems/2.5.0/gems/openstudio-extension-0.3.2/lib/files",
      "/Users/kcu/.rbenv/versions/2.5.5/lib/ruby/gems/2.5.0/gems/openstudio-load-flexibility-measures-0.2.1/lib/files",
      "/Users/kcu/.rbenv/versions/2.5.5/lib/ruby/gems/2.5.0/gems/openstudio-model-articulation-0.3.1/lib/files",
      "/Users/kcu/.rbenv/versions/2.5.5/lib/ruby/gems/2.5.0/gems/urbanopt-reopt-0.5.7/lib/files",
      "./files",
      "./weather",
      "../../files",
      "../../weather",
      "./"
   ],
   "hash" : "D108EE4A",
   "measure_paths" : 
   [
      "/Users/kcu/Desktop/Scripting/NREL_Work/UCI/Github/urbanopt-example-geojson-project/UCI_MultiFamily_test/mappers/../measures/",
      "/Users/kcu/Desktop/Scripting/NREL_Work/UCI/Github/urbanopt-example-geojson-project/UCI_MultiFamily_test/mappers/../resources/hpxml-measures",
      "/Users/kcu/.rbenv/versions/2.5.5/lib/ruby/gems/2.5.0/gems/openstudio-calibration-0.3.1/lib/measures",
      "/Users/kcu/.rbenv/versions/2.5.5/lib/ruby/gems/2.5.0/gems/openstudio-common-measures-0.3.2/lib/measures",
      "/Users/kcu/.rbenv/versions/2.5.5/lib/ruby/gems/2.5.0/gems/openstudio-ee-0.3.2/lib/measures",
      "/Users/kcu/.rbenv/versions/2.5.5/lib/ruby/gems/2.5.0/gems/openstudio-extension-0.3.2/lib/measures",
      "/Users/kcu/.rbenv/versions/2.5.5/lib/ruby/gems/2.5.0/gems/openstudio-load-flexibility-measures-0.2.1/lib/measures",
      "/Users/kcu/.rbenv/versions/2.5.5/lib/ruby/gems/2.5.0/gems/openstudio-model-articulation-0.3.1/lib/measures",
      "/Users/kcu/.rbenv/versions/2.5.5/lib/ruby/gems/2.5.0/gems/urbanopt-geojson-0.5.3/lib/measures",
      "/Users/kcu/.rbenv/versions/2.5.5/lib/ruby/gems/2.5.0/gems/urbanopt-reopt-0.5.7/lib/measures",
      "/Users/kcu/.rbenv/versions/2.5.5/lib/ruby/gems/2.5.0/gems/urbanopt-reporting-0.3.7/lib/measures",
      "/Users/kcu/Desktop/Scripting/NREL_Work/UCI/Github/urbanopt-scenario-gem/lib/measures"
   ],
   "name" : "Queens Ln 17411 ",
   "run_directory" : "/Users/kcu/Desktop/Scripting/NREL_Work/UCI/Github/urbanopt-example-geojson-project/UCI_MultiFamily_test/run/baseline_scenario_res_test/20",
   "seed_file" : null,
   "started_at" : "20210417T114028Z",
   "steps" : 
   [
      {
         "arguments" : 
         {
            "__SKIP__" : false,
            "air_leakage_house_pressure" : "50",
            "air_leakage_shielding_of_home" : "auto",
            "air_leakage_units" : "ACH",
            "air_leakage_value" : "3",
            "bathroom_fans_flow_rate" : "auto",
            "bathroom_fans_hours_in_operation" : "auto",
            "bathroom_fans_power" : "auto",
            "bathroom_fans_quantity" : "auto",
            "bathroom_fans_start_hour" : "auto",
            "ceiling_assembly_r" : "30",
            "ceiling_fan_cooling_setpoint_temp_offset" : "0.5",
            "ceiling_fan_efficiency" : "auto",
            "ceiling_fan_present" : "true",
            "ceiling_fan_quantity" : "auto",
            "clothes_dryer_efficiency" : "auto",
            "clothes_dryer_efficiency_type" : "CombinedEnergyFactor",
            "clothes_dryer_fuel_type" : "natural gas",
            "clothes_dryer_location" : "auto",
            "clothes_dryer_usage_multiplier" : "1",
            "clothes_dryer_vented_flow_rate" : "auto",
            "clothes_washer_capacity" : "auto",
            "clothes_washer_efficiency" : "auto",
            "clothes_washer_efficiency_type" : "IntegratedModifiedEnergyFactor",
            "clothes_washer_label_annual_gas_cost" : "auto",
            "clothes_washer_label_electric_rate" : "auto",
            "clothes_washer_label_gas_rate" : "auto",
            "clothes_washer_label_usage" : "auto",
            "clothes_washer_location" : "auto",
            "clothes_washer_rated_annual_kwh" : "auto",
            "clothes_washer_usage_multiplier" : "1",
            "cooking_range_oven_fuel_type" : "natural gas",
            "cooking_range_oven_location" : "auto",
            "cooking_range_oven_usage_multiplier" : "1",
            "cooling_system_cooling_capacity" : "auto",
            "cooling_system_cooling_efficiency" : "13",
            "cooling_system_cooling_efficiency_type" : "SEER",
            "cooling_system_fraction_cool_load_served" : "1",
            "cooling_system_is_ducted" : "false",
            "cooling_system_type" : "central air conditioner",
            "dehumidifier_capacity" : "40",
            "dehumidifier_efficiency" : "1.5",
            "dehumidifier_efficiency_type" : "IntegratedEnergyFactor",
            "dehumidifier_fraction_dehumidification_load_served" : "1",
            "dehumidifier_rh_setpoint" : "0.5",
            "dehumidifier_type" : "none",
            "dhw_distribution_pipe_r" : "auto",
            "dhw_distribution_recirc_branch_piping_length" : "auto",
            "dhw_distribution_recirc_control_type" : "no control",
            "dhw_distribution_recirc_piping_length" : "auto",
            "dhw_distribution_recirc_pump_power" : "auto",
            "dhw_distribution_standard_piping_length" : "auto",
            "dhw_distribution_system_type" : "Standard",
            "dishwasher_efficiency" : "auto",
            "dishwasher_efficiency_type" : "RatedAnnualkWh",
            "dishwasher_label_annual_gas_cost" : "auto",
            "dishwasher_label_electric_rate" : "auto",
            "dishwasher_label_gas_rate" : "auto",
            "dishwasher_label_usage" : "auto",
            "dishwasher_location" : "auto",
            "dishwasher_place_setting_capacity" : "auto",
            "dishwasher_usage_multiplier" : "1",
            "door_area" : "20",
            "door_rvalue" : "5",
            "ducts_number_of_return_registers" : "auto",
            "ducts_return_insulation_r" : "0",
            "ducts_return_leakage_units" : "CFM25",
            "ducts_return_leakage_value" : "25",
            "ducts_return_location" : "auto",
            "ducts_return_surface_area" : "auto",
            "ducts_supply_insulation_r" : "0",
            "ducts_supply_leakage_units" : "CFM25",
            "ducts_supply_leakage_value" : "75",
            "ducts_supply_location" : "auto",
            "ducts_supply_surface_area" : "auto",
            "dwhr_efficiency" : "0.55",
            "dwhr_equal_flow" : "true",
            "dwhr_facilities_connected" : "none",
            "extra_refrigerator_location" : "auto",
            "extra_refrigerator_rated_annual_kwh" : "auto",
            "extra_refrigerator_usage_multiplier" : "1",
            "feature_id" : 32,
            "floor_assembly_r" : "30",
            "foundation_wall_insulation_distance_to_bottom" : "auto",
            "foundation_wall_insulation_distance_to_top" : "0",
            "foundation_wall_insulation_r" : "0",
            "foundation_wall_thickness" : "auto",
            "freezer_location" : "auto",
            "freezer_rated_annual_kwh" : "auto",
            "freezer_usage_multiplier" : "1",
            "fuel_loads_fireplace_annual_therm" : "auto",
            "fuel_loads_fireplace_frac_latent" : "auto",
            "fuel_loads_fireplace_frac_sensible" : "auto",
            "fuel_loads_fireplace_fuel_type" : "natural gas",
            "fuel_loads_fireplace_present" : "false",
            "fuel_loads_fireplace_usage_multiplier" : "0",
            "fuel_loads_grill_annual_therm" : "auto",
            "fuel_loads_grill_fuel_type" : "natural gas",
            "fuel_loads_grill_present" : "false",
            "fuel_loads_grill_usage_multiplier" : "0",
            "fuel_loads_lighting_annual_therm" : "auto",
            "fuel_loads_lighting_fuel_type" : "natural gas",
            "fuel_loads_lighting_present" : "false",
            "fuel_loads_lighting_usage_multiplier" : "0",
            "geometry_aspect_ratio" : "2",
            "geometry_attic_type" : "VentedAttic",
            "geometry_balcony_depth" : "0",
            "geometry_building_num_units" : 3,
            "geometry_cfa" : 1418,
            "geometry_corridor_position" : "Double Exterior",
            "geometry_corridor_width" : "10",
            "geometry_eaves_depth" : "2",
            "geometry_foundation_height" : 0,
            "geometry_foundation_height_above_grade" : "0",
            "geometry_foundation_type" : "SlabOnGrade",
            "geometry_garage_depth" : "20",
            "geometry_garage_position" : "Right",
            "geometry_garage_protrusion" : "0",
            "geometry_garage_width" : "0",
            "geometry_has_flue_or_chimney" : "auto",
            "geometry_inset_depth" : "0",
            "geometry_inset_position" : "Right",
            "geometry_inset_width" : "0",
            "geometry_num_bathrooms" : "auto",
            "geometry_num_bedrooms" : 2,
            "geometry_num_floors_above_grade" : 1,
            "geometry_num_occupants" : "auto",
            "geometry_orientation" : "180",
            "geometry_rim_joist_height" : "9.25",
            "geometry_roof_pitch" : "6:12",
            "geometry_roof_type" : "flat",
            "geometry_unit_type" : "apartment unit",
            "geometry_wall_height" : 8,
            "heat_pump_backup_fuel" : "none",
            "heat_pump_backup_heating_capacity" : "auto",
            "heat_pump_backup_heating_efficiency" : "1",
            "heat_pump_cooling_capacity" : "auto",
            "heat_pump_cooling_efficiency" : "13",
            "heat_pump_cooling_efficiency_type" : "SEER",
            "heat_pump_fraction_cool_load_served" : "1",
            "heat_pump_fraction_heat_load_served" : "1",
            "heat_pump_heating_capacity" : "auto",
            "heat_pump_heating_capacity_17_f" : "auto",
            "heat_pump_heating_efficiency" : "7.7",
            "heat_pump_heating_efficiency_type" : "HSPF",
            "heat_pump_type" : "none",
            "heating_system_fraction_heat_load_served" : "1",
            "heating_system_fraction_heat_load_served_2" : "0.25",
            "heating_system_fuel" : "natural gas",
            "heating_system_fuel_2" : "electricity",
            "heating_system_heating_capacity" : "auto",
            "heating_system_heating_capacity_2" : "auto",
            "heating_system_heating_efficiency" : "0.78",
            "heating_system_heating_efficiency_2" : "1",
            "heating_system_type" : "Furnace",
            "heating_system_type_2" : "none",
            "holiday_lighting_daily_kwh" : "auto",
            "holiday_lighting_period_begin_day_of_month" : "auto",
            "holiday_lighting_period_begin_month" : "auto",
            "holiday_lighting_period_end_day_of_month" : "auto",
            "holiday_lighting_period_end_month" : "auto",
            "holiday_lighting_present" : "false",
            "hot_tub_heater_annual_kwh" : "auto",
            "hot_tub_heater_annual_therm" : "auto",
            "hot_tub_heater_type" : "none",
            "hot_tub_heater_usage_multiplier" : "1",
            "hot_tub_present" : "false",
            "hot_tub_pump_annual_kwh" : "auto",
            "hot_tub_pump_usage_multiplier" : "1",
            "kitchen_fans_flow_rate" : "auto",
            "kitchen_fans_hours_in_operation" : "auto",
            "kitchen_fans_power" : "auto",
            "kitchen_fans_quantity" : "auto",
            "kitchen_fans_start_hour" : "auto",
            "lighting_fraction_cfl_exterior" : "0.4",
            "lighting_fraction_cfl_garage" : "0.4",
            "lighting_fraction_cfl_interior" : "0.4",
            "lighting_fraction_led_exterior" : "0.25",
            "lighting_fraction_led_garage" : "0.25",
            "lighting_fraction_led_interior" : "0.25",
            "lighting_fraction_lfl_exterior" : "0.1",
            "lighting_fraction_lfl_garage" : "0.1",
            "lighting_fraction_lfl_interior" : "0.1",
            "lighting_usage_multiplier_exterior" : "1",
            "lighting_usage_multiplier_garage" : "1",
            "lighting_usage_multiplier_interior" : "1",
            "mech_vent_fan_power" : "30",
            "mech_vent_fan_power_2" : "30",
            "mech_vent_fan_type" : "none",
            "mech_vent_fan_type_2" : "none",
            "mech_vent_flow_rate" : "110",
            "mech_vent_flow_rate_2" : "110",
            "mech_vent_hours_in_operation" : "24",
            "mech_vent_hours_in_operation_2" : "24",
            "mech_vent_num_units_served" : "1",
            "mech_vent_recovery_efficiency_type" : "Unadjusted",
            "mech_vent_recovery_efficiency_type_2" : "Unadjusted",
            "mech_vent_sensible_recovery_efficiency" : "0.72",
            "mech_vent_sensible_recovery_efficiency_2" : "0.72",
            "mech_vent_total_recovery_efficiency" : "0.48",
            "mech_vent_total_recovery_efficiency_2" : "0.48",
            "neighbor_back_distance" : "0",
            "neighbor_back_height" : "auto",
            "neighbor_front_distance" : "0",
            "neighbor_front_height" : "auto",
            "neighbor_left_distance" : 0,
            "neighbor_left_height" : "auto",
            "neighbor_right_distance" : 0,
            "neighbor_right_height" : "auto",
            "overhangs_back_depth" : "0",
            "overhangs_back_distance_to_top_of_window" : "0",
            "overhangs_front_depth" : "0",
            "overhangs_front_distance_to_top_of_window" : "0",
            "overhangs_left_depth" : "0",
            "overhangs_left_distance_to_top_of_window" : "0",
            "overhangs_right_depth" : "0",
            "overhangs_right_distance_to_top_of_window" : "0",
            "plug_loads_other_annual_kwh" : "auto",
            "plug_loads_other_frac_latent" : "auto",
            "plug_loads_other_frac_sensible" : "auto",
            "plug_loads_other_usage_multiplier" : "1",
            "plug_loads_television_annual_kwh" : "auto",
            "plug_loads_television_usage_multiplier" : "1",
            "plug_loads_vehicle_annual_kwh" : "auto",
            "plug_loads_vehicle_present" : "false",
            "plug_loads_vehicle_usage_multiplier" : "1",
            "plug_loads_well_pump_annual_kwh" : "auto",
            "plug_loads_well_pump_present" : "false",
            "plug_loads_well_pump_usage_multiplier" : "1",
            "pool_heater_annual_kwh" : "auto",
            "pool_heater_annual_therm" : "auto",
            "pool_heater_type" : "none",
            "pool_heater_usage_multiplier" : "1",
            "pool_present" : "false",
            "pool_pump_annual_kwh" : "auto",
            "pool_pump_usage_multiplier" : "1",
            "pv_system_array_azimuth_1" : "180",
            "pv_system_array_azimuth_2" : "180",
            "pv_system_array_tilt_1" : "RoofPitch",
            "pv_system_array_tilt_2" : "RoofPitch",
            "pv_system_location_1" : "auto",
            "pv_system_location_2" : "auto",
            "pv_system_max_power_output_1" : "4000",
            "pv_system_max_power_output_2" : "4000",
            "pv_system_module_type_1" : "none",
            "pv_system_module_type_2" : "none",
            "pv_system_num_units_served_1" : "1",
            "pv_system_num_units_served_2" : "1",
            "pv_system_tracking_1" : "auto",
            "pv_system_tracking_2" : "auto",
            "refrigerator_location" : "auto",
            "refrigerator_rated_annual_kwh" : "auto",
            "refrigerator_usage_multiplier" : "1",
            "rim_joist_assembly_r" : "23",
            "roof_assembly_r" : "2.3",
            "roof_color" : "medium",
            "roof_radiant_barrier" : "false",
            "roof_radiant_barrier_grade" : "1",
            "schedules_type" : "stochastic",
            "setpoint_cooling_weekday" : "76",
            "setpoint_cooling_weekend" : "76",
            "setpoint_heating_weekday" : "71",
            "setpoint_heating_weekend" : "71",
            "simulation_control_run_period_begin_day_of_month" : 1,
            "simulation_control_run_period_begin_month" : 1,
            "simulation_control_run_period_calendar_year" : 2017,
            "simulation_control_run_period_end_day_of_month" : 31,
            "simulation_control_run_period_end_month" : 12,
            "simulation_control_timestep" : 60,
            "skylight_area_back" : "0",
            "skylight_area_front" : "0",
            "skylight_area_left" : "0",
            "skylight_area_right" : "0",
            "skylight_shgc" : "0.45",
            "skylight_ufactor" : "0.33",
            "slab_carpet_fraction" : "auto",
            "slab_carpet_r" : "auto",
            "slab_perimeter_depth" : "0",
            "slab_perimeter_insulation_r" : "0",
            "slab_thickness" : "auto",
            "slab_under_insulation_r" : "0",
            "slab_under_width" : "0",
            "solar_thermal_collector_area" : "40",
            "solar_thermal_collector_azimuth" : "180",
            "solar_thermal_collector_loop_type" : "liquid direct",
            "solar_thermal_collector_rated_optical_efficiency" : "0.5",
            "solar_thermal_collector_rated_thermal_losses" : "0.2799",
            "solar_thermal_collector_tilt" : "RoofPitch",
            "solar_thermal_collector_type" : "evacuated tube",
            "solar_thermal_solar_fraction" : "0",
            "solar_thermal_storage_volume" : "auto",
            "solar_thermal_system_type" : "none",
            "wall_assembly_r" : "13",
            "wall_color" : "medium",
            "wall_type" : "WoodStud",
            "water_fixtures_shower_low_flow" : "false",
            "water_fixtures_sink_low_flow" : "false",
            "water_fixtures_usage_multiplier" : "1",
            "water_heater_efficiency" : "0.67",
            "water_heater_efficiency_type" : "EnergyFactor",
            "water_heater_first_hour_rating" : "56",
            "water_heater_fuel_type" : "natural gas",
            "water_heater_location" : "auto",
            "water_heater_num_units_served" : "1",
            "water_heater_recovery_efficiency" : "auto",
            "water_heater_setpoint_temperature" : "auto",
            "water_heater_tank_volume" : "auto",
            "water_heater_type" : "storage water heater",
            "weather_station_epw_filepath" : "../../../weather/USA_CA_Long.Beach-Daugherty.Field.722970_TMY3.epw",
            "whole_house_fan_flow_rate" : "4500",
            "whole_house_fan_power" : "300",
            "whole_house_fan_present" : "false",
            "window_area_back" : "0",
            "window_area_front" : "0",
            "window_area_left" : "0",
            "window_area_right" : "0",
            "window_aspect_ratio" : "1.333",
            "window_back_wwr" : "0.18",
            "window_front_wwr" : "0.18",
            "window_left_wwr" : "0.18",
            "window_right_wwr" : "0.18",
            "window_shgc" : "0.3",
            "window_ufactor" : "0.37"
         },
         "measure_dir_name" : "BuildResidentialModel",
         "result" : 
         {
            "completed_at" : "20210417T114148Z",
            "measure_class_name" : "BuildResidentialModel",
            "measure_display_name" : "Build Residential Model",
            "measure_name" : "build_residential_model",
            "measure_taxonomy" : "Whole Building.Space Types",
            "measure_type" : "ModelMeasure",
            "measure_uid" : "259dc35f-65e8-47d4-913f-69efede5a267",
            "measure_version_id" : "22176a3d-cb26-48b7-85d0-ba9c5e7fdd77",
            "measure_version_modified" : "20200102T175052Z",
            "measure_xml_checksum" : "2C38F48B",
            "started_at" : "20210417T114029Z",
            "stderr" : "",
[...]
               },
               {
                  "name" : "other_fuel_1_interior_lighting_ip",
                  "units" : "MBtu",
                  "value" : 0.0
               },
               {
                  "name" : "other_fuel_1_exterior_lighting_ip",
                  "units" : "MBtu",
                  "value" : 0.0
               },
               {
                  "name" : "other_fuel_1_interior_equipment_ip",
                  "units" : "MBtu",
                  "value" : 0.0
               },
               {
                  "name" : "other_fuel_1_exterior_equipment_ip",
                  "units" : "MBtu",
                  "value" : 0.0
               },
               {
                  "name" : "other_fuel_1_fans_ip",
                  "units" : "MBtu",
                  "value" : 0.0
               },
               {
                  "name" : "other_fuel_1_pumps_ip",
                  "units" : "MBtu",
                  "value" : 0.0
               },
               {
                  "name" : "other_fuel_1_heat_rejection_ip",
                  "units" : "MBtu",
                  "value" : 0.0
               },
               {
                  "name" : "other_fuel_1_humidification_ip",
                  "units" : "MBtu",
                  "value" : 0.0
               },
               {
                  "name" : "other_fuel_1_heat_recovery_ip",
                  "units" : "MBtu",
                  "value" : 0.0
               },
               {
                  "name" : "other_fuel_1_water_systems_ip",
                  "units" : "MBtu",
                  "value" : 0.0
               },
               {
                  "name" : "other_fuel_1_refrigeration_ip",
                  "units" : "MBtu",
                  "value" : 0.0
               },
               {
                  "name" : "other_fuel_1_generators_ip",
                  "units" : "MBtu",
                  "value" : 0.0
               },
               {
                  "name" : "other_fuel_1_ip",
                  "units" : "MBtu",
                  "value" : 0.0
               },
               {
                  "name" : "other_fuel_2_heating_ip",
                  "units" : "MBtu",
                  "value" : 0.0
               },
               {
                  "name" : "other_fuel_2_cooling_ip",
                  "units" : "MBtu",
                  "value" : 0.0
               },
               {
                  "name" : "other_fuel_2_interior_lighting_ip",
                  "units" : "MBtu",
                  "value" : 0.0
               },
               {
                  "name" : "other_fuel_2_exterior_lighting_ip",
                  "units" : "MBtu",
                  "value" : 0.0
               },
               {
                  "name" : "other_fuel_2_interior_equipment_ip",
                  "units" : "MBtu",
                  "value" : 0.0
               },
               {
                  "name" : "other_fuel_2_exterior_equipment_ip",
                  "units" : "MBtu",
                  "value" : 0.0
               },
               {
                  "name" : "other_fuel_2_fans_ip",
                  "units" : "MBtu",
                  "value" : 0.0
               },
               {
                  "name" : "other_fuel_2_pumps_ip",
                  "units" : "MBtu",
                  "value" : 0.0
               },
               {
                  "name" : "other_fuel_2_heat_rejection_ip",
                  "units" : "MBtu",
                  "value" : 0.0
               },
               {
                  "name" : "other_fuel_2_humidification_ip",
                  "units" : "MBtu",
                  "value" : 0.0
               },
               {
                  "name" : "other_fuel_2_heat_recovery_ip",
                  "units" : "MBtu",
                  "value" : 0.0
               },
               {
                  "name" : "other_fuel_2_water_systems_ip",
                  "units" : "MBtu",
                  "value" : 0.0
               },
               {
                  "name" : "other_fuel_2_refrigeration_ip",
                  "units" : "MBtu",
                  "value" : 0.0
               },
               {
                  "name" : "other_fuel_2_generators_ip",
                  "units" : "MBtu",
                  "value" : 0.0
               },
               {
                  "name" : "other_fuel_2_ip",
                  "units" : "MBtu",
                  "value" : 0.0
               },
               {
                  "name" : "district_cooling_heating_ip",
                  "units" : "MBtu",
                  "value" : 0.0
               },
               {
                  "name" : "district_cooling_cooling_ip",
                  "units" : "MBtu",
                  "value" : 1.536824397877629
               },
               {
                  "name" : "district_cooling_interior_lighting_ip",
                  "units" : "MBtu",
                  "value" : 0.0
               },
               {
                  "name" : "district_cooling_exterior_lighting_ip",
                  "units" : "MBtu",
                  "value" : 0.0
               },
               {
                  "name" : "district_cooling_interior_equipment_ip",
                  "units" : "MBtu",
                  "value" : 0.0
               },
               {
                  "name" : "district_cooling_exterior_equipment_ip",
                  "units" : "MBtu",
                  "value" : 0.0
               },
               {
                  "name" : "district_cooling_fans_ip",
                  "units" : "MBtu",
                  "value" : 0.0
               },
               {
                  "name" : "district_cooling_pumps_ip",
                  "units" : "MBtu",
                  "value" : 0.0
               },
               {
                  "name" : "district_cooling_heat_rejection_ip",
                  "units" : "MBtu",
                  "value" : 0.0
               },
               {
                  "name" : "district_cooling_humidification_ip",
                  "units" : "MBtu",
                  "value" : 0.0
               },
               {
                  "name" : "district_cooling_heat_recovery_ip",
                  "units" : "MBtu",
                  "value" : 0.0
               },
               {
                  "name" : "district_cooling_water_systems_ip",
                  "units" : "MBtu",
                  "value" : 0.0
               },
               {
                  "name" : "district_cooling_refrigeration_ip",
                  "units" : "MBtu",
                  "value" : 0.0
               },
               {
                  "name" : "district_cooling_generators_ip",
                  "units" : "MBtu",
                  "value" : 0.0
               },
               {
                  "name" : "district_cooling_ip",
                  "units" : "MBtu",
                  "value" : 1.536824397877629
               },
               {
                  "name" : "district_heating_heating_ip",
                  "units" : "MBtu",
                  "value" : 0.0076838974163009367
               },
               {
                  "name" : "district_heating_cooling_ip",
                  "units" : "MBtu",
                  "value" : 0.0
               },
               {
                  "name" : "district_heating_interior_lighting_ip",
                  "units" : "MBtu",
                  "value" : 0.0
               },
               {
                  "name" : "district_heating_exterior_lighting_ip",
                  "units" : "MBtu",
                  "value" : 0.0
               },
               {
                  "name" : "district_heating_interior_equipment_ip",
                  "units" : "MBtu",
                  "value" : 0.0
               },
               {
                  "name" : "district_heating_exterior_equipment_ip",
                  "units" : "MBtu",
                  "value" : 0.0
               },
               {
                  "name" : "district_heating_fans_ip",
                  "units" : "MBtu",
                  "value" : 0.0
               },
               {
                  "name" : "district_heating_pumps_ip",
                  "units" : "MBtu",
                  "value" : 0.0
               },
               {
                  "name" : "district_heating_heat_rejection_ip",
                  "units" : "MBtu",
                  "value" : 0.0
               },
               {
                  "name" : "district_heating_humidification_ip",
                  "units" : "MBtu",
                  "value" : 0.0
               },
               {
                  "name" : "district_heating_heat_recovery_ip",
                  "units" : "MBtu",
                  "value" : 0.0
               },
               {
                  "name" : "district_heating_water_systems_ip",
                  "units" : "MBtu",
                  "value" : 0.0
               },
               {
                  "name" : "district_heating_refrigeration_ip",
                  "units" : "MBtu",
                  "value" : 0.0
               },
               {
                  "name" : "district_heating_generators_ip",
                  "units" : "MBtu",
                  "value" : 0.0
               },
               {
                  "name" : "district_heating_ip",
                  "units" : "MBtu",
                  "value" : 0.0076838974163009367
               },
               {
                  "name" : "adiabatic_wall_construction",
                  "units" : "ft^2",
                  "value" : 0.20495303490605773
               },
               {
                  "name" : "adiabatic_wall_construction_1",
                  "units" : "ft^2",
                  "value" : 0.053625532904880285
               },
               {
                  "name" : "surface_2_construction",
                  "units" : "ft^2",
                  "value" : 349.00000000000034
               },
               {
                  "name" : "surface_3_construction",
                  "units" : "ft^2",
                  "value" : 174.60000000000002
               },
               {
                  "name" : "surface_5_construction",
                  "units" : "ft^2",
                  "value" : 154.60000000000008
               },
               {
                  "name" : "surface_6_construction",
                  "units" : "ft^2",
                  "value" : 1417.9999999999986
               },
               {
                  "name" : "unit_2_adiabatic_wall_construction",
                  "units" : "ft^2",
                  "value" : 0.20495303490604819
               },
               {
                  "name" : "unit_2_adiabatic_wall_construction_1",
                  "units" : "ft^2",
                  "value" : 0.053625532904880285
               },
               {
                  "name" : "unit_2_surface_3_construction",
                  "units" : "ft^2",
                  "value" : 174.60000000000011
               },
               {
                  "name" : "unit_2_surface_4_construction",
                  "units" : "ft^2",
                  "value" : 349.00000000000034
               },
               {
                  "name" : "unit_2_surface_5_construction",
                  "units" : "ft^2",
                  "value" : 154.60000000000002
               },
               {
                  "name" : "unit_2_surface_6_construction",
                  "units" : "ft^2",
                  "value" : 1417.9999999999986
               },
               {
                  "name" : "unit_3_adiabatic_wall_construction",
                  "units" : "ft^2",
                  "value" : 0.20495303490605773
               },
               {
                  "name" : "unit_3_adiabatic_wall_construction_1",
                  "units" : "ft^2",
                  "value" : 0.053625532904880285
               },
               {
                  "name" : "unit_3_surface_3_construction",
                  "units" : "ft^2",
                  "value" : 174.60000000000002
               },
               {
                  "name" : "unit_3_surface_4_construction",
                  "units" : "ft^2",
                  "value" : 349.00000000000006
               },
               {
                  "name" : "unit_3_surface_5_construction",
                  "units" : "ft^2",
                  "value" : 154.60000000000008
               },
               {
                  "name" : "unit_3_surface_6_construction",
                  "units" : "ft^2",
                  "value" : 1417.9999999999986
               },
               {
                  "name" : "door",
                  "units" : "ft^2",
                  "value" : 0.17261949682483649
               },
               {
                  "name" : "unit_2_door",
                  "units" : "ft^2",
                  "value" : 0.17261949682483274
               },
               {
                  "name" : "unit_2_window_construction",
                  "units" : "ft^2",
                  "value" : 0.33142943390368096
               },
               {
                  "name" : "unit_2_window_construction_1",
                  "units" : "ft^2",
                  "value" : 0.66458506277560159
               },
               {
                  "name" : "unit_2_window_construction_2",
                  "units" : "ft^2",
                  "value" : 0.33142943390367746
               },
               {
                  "name" : "unit_3_door",
                  "units" : "ft^2",
                  "value" : 0.17261949682483649
               },
               {
                  "name" : "unit_3_window_construction",
                  "units" : "ft^2",
                  "value" : 0.33142943390367757
               },
               {
                  "name" : "unit_3_window_construction_1",
                  "units" : "ft^2",
                  "value" : 0.66458506277559892
               },
               {
                  "name" : "unit_3_window_construction_2",
                  "units" : "ft^2",
                  "value" : 0.33142943390367746
               },
               {
                  "name" : "window_construction",
                  "units" : "ft^2",
                  "value" : 0.66458506277560159
               },
               {
                  "name" : "window_construction_1",
                  "units" : "ft^2",
                  "value" : 0.33142943390367757
               },
               {
                  "name" : "window_construction_2",
                  "units" : "ft^2",
                  "value" : 0.33142943390367746
               },
               {
                  "name" : "gross_window_wall_ratio",
                  "units" : "%",
                  "value" : 18.050000000000001
               },
               {
                  "name" : "gross_window_wall_ratio_conditioned",
                  "units" : "%",
                  "value" : 18.050000000000001
               },
               {
                  "name" : "skylight_roof_ratio",
                  "units" : "%",
                  "value" : 0.0
               },
               {
                  "name" : "space_type_plenum_space_type",
                  "units" : "ft^2",
                  "value" : 0.0
               },
               {
                  "name" : "space_type_space_type_1",
                  "units" : "ft^2",
                  "value" : 1417.9999999999998
               },
               {
                  "name" : "space_type_unit_2_space_type_1",
                  "units" : "ft^2",
                  "value" : 1417.9999999999998
               },
               {
                  "name" : "space_type_unit_3_space_type_1",
                  "units" : "ft^2",
                  "value" : 1417.9999999999998
               },
               {
                  "name" : "clothes_washer",
                  "units" : "gal/min",
                  "value" : 3.5845123959808136
               },
               {
                  "name" : "dhw_distribution_waste",
                  "units" : "gal/min",
                  "value" : 0.99032206011629897
               },
               {
                  "name" : "dhw_fixtures",
                  "units" : "gal/min",
                  "value" : 2.595276165825362
               },
               {
                  "name" : "dishwasher",
                  "units" : "gal/min",
                  "value" : 6.5487065312912476
               },
               {
                  "name" : "unit_2_clothes_washer",
                  "units" : "gal/min",
                  "value" : 1.3564496673386546
               },
               {
                  "name" : "unit_2_dhw_distribution_waste",
                  "units" : "gal/min",
                  "value" : 0.72042163764661371
               },
               {
                  "name" : "unit_2_dhw_fixtures",
                  "units" : "gal/min",
                  "value" : 1.8879647145389875
               },
               {
                  "name" : "unit_2_dishwasher",
                  "units" : "gal/min",
                  "value" : 3.7016290105715535
               },
               {
                  "name" : "unit_3_clothes_washer",
                  "units" : "gal/min",
                  "value" : 1.5243825230889068
               },
               {
                  "name" : "unit_3_dhw_distribution_waste",
                  "units" : "gal/min",
                  "value" : 0.7515830328202775
               },
               {
                  "name" : "unit_3_dhw_fixtures",
                  "units" : "gal/min",
                  "value" : 1.9696274679452686
               },
               {
                  "name" : "unit_3_dishwasher",
                  "units" : "gal/min",
                  "value" : 3.5049144720082079
               },
               {
                  "name" : "zone_max_hours_over_70_rh",
                  "units" : "hr",
                  "value" : 13.0
               },
               {
                  "name" : "zone_max_hours_over_55_rh",
                  "units" : "hr",
                  "value" : 2161.0
               },
               {
                  "name" : "num_zones_x_hours_over_70",
                  "units" : "zones",
                  "value" : 2
               },
               {
                  "name" : "num_zones_x_hours_over_55",
                  "units" : "zones",
                  "value" : 6
               },
               {
                  "name" : "inflation_approach",
                  "value" : "Constant Dollar"
               },
               {
                  "name" : "analysis_length",
                  "units" : "yrs",
                  "value" : 25
               },
               {
                  "name" : "number_of_measures_with_warnings",
                  "value" : 2
               },
               {
                  "name" : "number_warnings",
                  "value" : 45
               },
               {
                  "name" : "annual_peak_electric_demand",
                  "units" : "kW",
                  "value" : 10.2675
               },
               {
                  "name" : "first_year_capital_cost",
                  "units" : "$",
                  "value" : 0.0
               },
               {
                  "name" : "annual_utility_cost",
                  "units" : "$",
                  "value" : 0.0
               },
               {
                  "name" : "total_lifecycle_cost",
                  "units" : "$",
                  "value" : 0.0
               }
            ],
            "step_warnings" : []
         }
      }
   ],
   "updated_at" : "20210417T114312Z",
   "weather_file" : null
}