Program Version,EnergyPlus, Version 9.4.0-998c4b761e, YMD=2021.04.17 04:41
! <Version>, Version ID
 Version, 9.4
! <Timesteps per Hour>, #TimeSteps, Minutes per TimeStep {minutes}
 Timesteps per Hour,  1, 60
! <System Convergence Limits>, Minimum System TimeStep {minutes}, Max HVAC Iterations, Minimum Plant Iterations, Maximum Plant Iterations
 System Convergence Limits, 60, 20, 2, 8
! <Simulation Control>, Do Zone Sizing, Do System Sizing, Do Plant Sizing, Do Design Days, Do Weather Simulation, Do HVAC Sizing Simulation
 Simulation Control, No, No, No, No, Yes, No
! <Performance Precision Tradeoffs>, Use Coil Direct Simulation, Zone Radiant Exchange Algorithm, Override Mode, Number of Timestep In Hour, Force Euler Method, Minimum Number of Warmup Days, Force Suppress All Begin Environment Resets, Minimum System Timestep, MaxZoneTempDiff, MaxAllowedDelTemp
 Performance Precision Tradeoffs, No, ScriptF, Normal, 1, No, 1, No, 60.0, 0.300, 2.0000E-003
! <Output Reporting Tolerances>, Tolerance for Time Heating Setpoint Not Met, Tolerance for Zone Cooling Setpoint Not Met Time
 Output Reporting Tolerances, 0.200, 0.200, 
! <Site:GroundTemperature:BuildingSurface>,Jan{C},Feb{C},Mar{C},Apr{C},May{C},Jun{C},Jul{C},Aug{C},Sep{C},Oct{C},Nov{C},Dec{C}
 Site:GroundTemperature:BuildingSurface,  18.00,  18.00,  18.00,  18.00,  18.00,  18.00,  18.00,  18.00,  18.00,  18.00,  18.00,  18.00
! <Site:GroundTemperature:FCfactorMethod>,Jan{C},Feb{C},Mar{C},Apr{C},May{C},Jun{C},Jul{C},Aug{C},Sep{C},Oct{C},Nov{C},Dec{C}
 Site:GroundTemperature:FCfactorMethod,  13.50,  14.24,  15.70,  17.08,  19.69,  21.06,  21.44,  20.75,  19.14,  17.13,  15.16,  13.85
! <Site:GroundTemperature:Shallow>,Jan{C},Feb{C},Mar{C},Apr{C},May{C},Jun{C},Jul{C},Aug{C},Sep{C},Oct{C},Nov{C},Dec{C}
 Site:GroundTemperature:Shallow,  16.01,  15.34,  15.29,  15.61,  16.89,  18.16,  19.27,  19.97,  20.03,  19.46,  18.38,  17.15
! <Site:GroundTemperature:Deep>,Jan{C},Feb{C},Mar{C},Apr{C},May{C},Jun{C},Jul{C},Aug{C},Sep{C},Oct{C},Nov{C},Dec{C}
 Site:GroundTemperature:Deep,  17.48,  17.48,  17.48,  17.48,  17.48,  17.48,  17.48,  17.48,  17.48,  17.48,  17.48,  17.48
! <Site:GroundReflectance>,Jan{dimensionless},Feb{dimensionless},Mar{dimensionless},Apr{dimensionless},May{dimensionless},Jun{dimensionless},Jul{dimensionless},Aug{dimensionless},Sep{dimensionless},Oct{dimensionless},Nov{dimensionless},Dec{dimensionless}
 Site:GroundReflectance,  0.20,  0.20,  0.20,  0.20,  0.20,  0.20,  0.20,  0.20,  0.20,  0.20,  0.20,  0.20
! <Site:GroundReflectance:SnowModifier>, Normal, Daylighting {dimensionless}
 Site:GroundReflectance:SnowModifier,   1.000,   1.000
! <Site:GroundReflectance:Snow>,Jan{dimensionless},Feb{dimensionless},Mar{dimensionless},Apr{dimensionless},May{dimensionless},Jun{dimensionless},Jul{dimensionless},Aug{dimensionless},Sep{dimensionless},Oct{dimensionless},Nov{dimensionless},Dec{dimensionless}
 Site:GroundReflectance:Snow,  0.20,  0.20,  0.20,  0.20,  0.20,  0.20,  0.20,  0.20,  0.20,  0.20,  0.20,  0.20
! <Site:GroundReflectance:Snow:Daylighting>,Jan{dimensionless},Feb{dimensionless},Mar{dimensionless},Apr{dimensionless},May{dimensionless},Jun{dimensionless},Jul{dimensionless},Aug{dimensionless},Sep{dimensionless},Oct{dimensionless},Nov{dimensionless},Dec{dimensionless}
 Site:GroundReflectance:Snow:Daylighting,  0.20,  0.20,  0.20,  0.20,  0.20,  0.20,  0.20,  0.20,  0.20,  0.20,  0.20,  0.20
! <Environment:Weather Station>,Wind Sensor Height Above Ground {m},Wind Speed Profile Exponent {},Wind Speed Profile Boundary Layer Thickness {m},Air Temperature Sensor Height Above Ground {m},Wind Speed Modifier Coefficient-Internal,Temperature Modifier Coefficient-Internal
Environment:Weather Station,10.000,0.140,270.000,1.500,1.586,9.750E-003
! <Site:Location>, Location Name, Latitude {N+/S- Deg}, Longitude {E+/W- Deg},  Time Zone Number {GMT+/-}, Elevation {m},  Standard Pressure at Elevation {Pa}, Standard RhoAir at Elevation
Site:Location,Long Beach Daugherty Fld CA USA TMY3 WMO#=722970,33.83,-118.17,-8.00,8.00,101229,1.2032
! <Site Water Mains Temperature Information>,Calculation Method{},Water Mains Temperature Schedule Name{},Annual Average Outdoor Air Temperature{C},Maximum Difference In Monthly Average Outdoor Air Temperatures{deltaC},Fixed Default Water Mains Temperature{C}
Site Water Mains Temperature Information,Schedule,MAINS TEMPERATURE SCHEDULE,0.00,0.00,NA
! <Building Information>, Building Name,North Axis {deg},Terrain,  Loads Convergence Tolerance Value,Temperature Convergence Tolerance Value,  Solar Distribution,Maximum Number of Warmup Days,Minimum Number of Warmup Days
 Building Information,Building 1,0.000,Suburbs,4.00000E-002,0.40000,FullExterior,25,1
! <Inside Convection Algorithm>, Algorithm {Simple | TARP | CeilingDiffuser | AdaptiveConvectionAlgorithm}
Inside Convection Algorithm,TARP
! <Outside Convection Algorithm>, Algorithm {SimpleCombined | TARP | MoWitt | DOE-2 | AdaptiveConvectionAlgorithm}
Outside Convection Algorithm,DOE-2
! <Sky Radiance Distribution>, Value {Anisotropic}
Sky Radiance Distribution,Anisotropic
! <Zone Air Solution Algorithm>, Value {ThirdOrderBackwardDifference | AnalyticalSolution | EulerMethod}
 Zone Air Solution Algorithm, ThirdOrderBackwardDifference
! <Zone Air Carbon Dioxide Balance Simulation>, Simulation {Yes/No}, Carbon Dioxide Concentration
 Zone Air Carbon Dioxide Balance Simulation, No,N/A
! <Zone Air Generic Contaminant Balance Simulation>, Simulation {Yes/No}, Generic Contaminant Concentration
 Zone Air Generic Contaminant Balance Simulation, No,N/A
! <Zone Air Mass Flow Balance Simulation>, Enforce Mass Balance, Adjust Zone Mixing, Adjust Zone Infiltration {AddInfiltration | AdjustInfiltration | None}, Infiltration Zones {MixingSourceZonesOnly | AllZones}
 Zone Air Mass Flow Balance Simulation, No,N/A,N/A,N/A
! <HVACSystemRootFindingAlgorithm>, Value {RegulaFalsi | Bisection | BisectionThenRegulaFalsi | RegulaFalsiThenBisection}
 HVACSystemRootFindingAlgorithm, RegulaFalsi
! <Environment:Site Atmospheric Variation>,Wind Speed Profile Exponent {},Wind Speed Profile Boundary Layer Thickness {m},Air Temperature Gradient Coefficient {K/m}
Environment:Site Atmospheric Variation,0.220,370.000,6.500000E-003
! <Surface Geometry>,Starting Corner,Vertex Input Direction,Coordinate System,Daylight Reference Point Coordinate System,Rectangular (Simple) Surface Coordinate System
 Surface Geometry,UpperLeftCorner,Counterclockwise,RelativeCoordinateSystem,RelativeCoordinateSystem,RelativeToZoneOrigin
! <Zone Volume Capacitance Multiplier>, Sensible Heat Capacity Multiplier, Moisture Capacity Multiplier, Carbon Dioxide Capacity Multiplier, Generic Contaminant Capacity Multiplier
Zone Volume Capacitance Multiplier,   1.000 ,  15.000,   1.000,   1.000
! <Kiva Foundation Name>, Horizontal Cells, Vertical Cells, Total Cells, Total Exposed Perimeter, Perimeter Fraction, Wall Height, Wall Construction, Floor Surface, Wall Surface(s)
FOUNDATION KIVA 1,12,12,144,35.05,1.00,0.00,<Default Footing Wall Construction>,SURFACE_1
UNIT 2 FOUNDATION KIVA 1,12,12,144,35.05,1.00,0.00,<Default Footing Wall Construction>,UNIT 2 SURFACE_1
UNIT 3 FOUNDATION KIVA 1,12,12,144,35.05,1.00,0.00,<Default Footing Wall Construction>,UNIT 3 SURFACE_1
! <Surface Heat Transfer Algorithm>, Value {CTF - ConductionTransferFunction | EMPD - MoisturePenetrationDepthConductionTransferFunction | CondFD - ConductionFiniteDifference | HAMT - CombinedHeatAndMoistureFiniteElement} - Description,Inside Surface Max Temperature Limit{C}, Surface Convection Coefficient Lower Limit {W/m2-K}, Surface Convection Coefficient Upper Limit {W/m2-K}
Surface Heat Transfer Algorithm, CTF - ConductionTransferFunction,200,0.10,1000.0
Surface Heat Transfer Algorithm, KivaFoundation - TwoDimensionalFiniteDifference,200,0.10,1000.0
! <Shading Summary>, Number of Fixed Detached Shades, Number of Building Detached Shades, Number of Attached Shades
 Shading Summary,0,18,18
! <Zone Summary>, Number of Zones, Number of Zone Surfaces, Number of SubSurfaces
 Zone Summary,6,66,12
! <Zone Information>,Zone Name,North Axis {deg},Origin X-Coordinate {m},Origin Y-Coordinate {m},Origin Z-Coordinate {m},Centroid X-Coordinate {m},Centroid Y-Coordinate {m},Centroid Z-Coordinate {m},Type,Zone Multiplier,Zone List Multiplier,Minimum X {m},Maximum X {m},Minimum Y {m},Maximum Y {m},Minimum Z {m},Maximum Z {m},Ceiling Height {m},Volume {m3},Zone Inside Convection Algorithm {Simple-Detailed-CeilingDiffuser-TrombeWall},Zone Outside Convection Algorithm {Simple-Detailed-Tarp-MoWitt-DOE-2-BLAST}, Floor Area {m2},Exterior Gross Wall Area {m2},Exterior Net Wall Area {m2},Exterior Window Area {m2}, Number of Surfaces, Number of SubSurfaces, Number of Shading SubSurfaces,  Part of Total Building Area
 Zone Information, CENTRAL AC AND FURNACE AIRLOOP RET AIR ZONE,0.0,0.00,0.00,0.00,0.50,0.50,0.50,1,1,1,0.00,1.00,0.00,1.00,0.00,1.00,1.00,1.00,TARP,DOE-2,1.00,0.00,0.00,0.00,6,0,0,No
 Zone Information, LIVING SPACE,0.0,0.00,0.00,0.00,3.79E-002,-0.36,1.20,1,1,1,-11.25,11.25,-11.25,11.25,0.00,2.44,2.44,373.56,TARP,DOE-2,153.20,85.40,68.22,15.33,10,4,6,Yes
 Zone Information, UNIT 2 CENTRAL AC AND FURNACE AIRLOOP RET AIR ZONE,0.0,0.00,100.00,0.00,0.50,100.50,0.50,1,1,1,0.00,1.00,100.00,101.00,0.00,1.00,1.00,1.00,TARP,DOE-2,1.00,0.00,0.00,0.00,6,0,0,No
 Zone Information, UNIT 2 LIVING SPACE,0.0,0.00,100.00,0.00,-3.83E-002,99.64,1.20,1,1,1,-11.25,11.25,88.75,111.25,0.00,2.44,2.44,373.56,TARP,DOE-2,153.20,85.40,68.22,15.33,10,4,6,Yes
 Zone Information, UNIT 3 CENTRAL AC AND FURNACE AIRLOOP RET AIR ZONE,0.0,0.00,200.00,0.00,0.50,200.50,0.50,1,1,1,0.00,1.00,200.00,201.00,0.00,1.00,1.00,1.00,TARP,DOE-2,1.00,0.00,0.00,0.00,6,0,0,No
 Zone Information, UNIT 3 LIVING SPACE,0.0,0.00,200.00,0.00,3.83E-002,200.36,1.20,1,1,1,-11.25,11.25,188.75,211.25,0.00,2.44,2.44,373.56,TARP,DOE-2,153.20,85.40,68.22,15.33,10,4,6,Yes
! <Zone Internal Gains Nominal>,Zone Name, Floor Area {m2},# Occupants,Area per Occupant {m2/person},Occupant per Area {person/m2},Interior Lighting {W/m2},Electric Load {W/m2},Gas Load {W/m2},Other Load {W/m2},Hot Water Eq {W/m2},Steam Equipment {W/m2},Sum Loads per Area {W/m2},Outdoor Controlled Baseboard Heat
 Zone Internal Gains Nominal, CENTRAL AC AND FURNACE AIRLOOP RET AIR ZONE,1.00,0.0,N/A,0.000,0.000,0.000,0.000,0.000,0.000,0.000,0.000,No
 Zone Internal Gains Nominal, LIVING SPACE,153.20,2.0,76.599,1.306E-002,3.079,205.472,0.000,284.312,0.000,0.000,492.864,No
 Zone Internal Gains Nominal, UNIT 2 CENTRAL AC AND FURNACE AIRLOOP RET AIR ZONE,1.00,0.0,N/A,0.000,0.000,0.000,0.000,0.000,0.000,0.000,0.000,No
 Zone Internal Gains Nominal, UNIT 2 LIVING SPACE,153.20,2.0,76.599,1.306E-002,3.079,205.472,0.000,284.312,0.000,0.000,492.864,No
 Zone Internal Gains Nominal, UNIT 3 CENTRAL AC AND FURNACE AIRLOOP RET AIR ZONE,1.00,0.0,N/A,0.000,0.000,0.000,0.000,0.000,0.000,0.000,0.000,No
 Zone Internal Gains Nominal, UNIT 3 LIVING SPACE,153.20,2.0,76.599,1.306E-002,3.079,205.472,0.000,284.312,0.000,0.000,492.864,No
! <People Internal Gains Nominal>,Name,Schedule Name,Zone Name,Zone Floor Area {m2},# Zone Occupants,Number of People {},People/Floor Area {person/m2},Floor Area per person {m2/person},Fraction Radiant,Fraction Convected,Sensible Fraction Calculation,Activity level,ASHRAE 55 Warnings,Carbon Dioxide Generation Rate,Nominal Minimum Number of People,Nominal Maximum Number of People
 People Internal Gains Nominal, OCCUPANTS,OCCUPANTS,LIVING SPACE,153.20,2.0,2.0,1.306E-002,76.599,0.314,0.686,0.563,OCCUPANTS ACTIVITY SCHEDULE,No,0.0000,0,2
 People Internal Gains Nominal, UNIT 2 OCCUPANTS,UNIT 2 OCCUPANTS,UNIT 2 LIVING SPACE,153.20,2.0,2.0,1.306E-002,76.599,0.314,0.686,0.563,UNIT 2 OCCUPANTS ACTIVITY SCHEDULE,No,0.0000,0,2
 People Internal Gains Nominal, UNIT 3 OCCUPANTS,UNIT 3 OCCUPANTS,UNIT 3 LIVING SPACE,153.20,2.0,2.0,1.306E-002,76.599,0.314,0.686,0.563,UNIT 3 OCCUPANTS ACTIVITY SCHEDULE,No,0.0000,0,2
! <Lights Internal Gains Nominal>,Name,Schedule Name,Zone Name,Zone Floor Area {m2},# Zone Occupants,Lighting Level {W},Lights/Floor Area {W/m2},Lights per person {W/person},Fraction Return Air,Fraction Radiant,Fraction Short Wave,Fraction Convected,Fraction Replaceable,End-Use Category,Nominal Minimum Lighting Level {W},Nominal Maximum Lighting Level {W}
 Lights Internal Gains Nominal, INTERIOR LIGHTING,LIGHTING_INTERIOR,LIVING SPACE,153.20,2.0,471.752,3.079,235.876,0.000,0.600,0.200,0.200,1.000,interior lighting,23.257,471.752
 Lights Internal Gains Nominal, UNIT 2 INTERIOR LIGHTING,UNIT 2 LIGHTING_INTERIOR,UNIT 2 LIVING SPACE,153.20,2.0,471.752,3.079,235.876,0.000,0.600,0.200,0.200,1.000,interior lighting,23.257,471.752
 Lights Internal Gains Nominal, UNIT 3 INTERIOR LIGHTING,UNIT 3 LIGHTING_INTERIOR,UNIT 3 LIVING SPACE,153.20,2.0,471.752,3.079,235.876,0.000,0.600,0.200,0.200,1.000,interior lighting,23.257,471.752
! <ElectricEquipment Internal Gains Nominal>,Name,Schedule Name,Zone Name,Zone Floor Area {m2},# Zone Occupants,Equipment Level {W},Equipment/Floor Area {W/m2},Equipment per person {W/person},Fraction Latent,Fraction Radiant,Fraction Lost,Fraction Convected,End-Use SubCategory,Nominal Minimum Equipment Level {W},Nominal Maximum Equipment Level {W}
 ElectricEquipment Internal Gains Nominal, CEILING FAN,CEILING_FAN,LIVING SPACE,153.20,2.0,77.653,0.507,38.826,0.000,0.558,0.000,0.442,ceiling fan,16.462,77.653
 ElectricEquipment Internal Gains Nominal, CLOTHES DRYER,CLOTHES_DRYER,LIVING SPACE,153.20,2.0,1127.237,7.358,563.618,1.648E-002,8.011E-002,0.850,5.341E-002,clothes dryer,0.000,444.131
 ElectricEquipment Internal Gains Nominal, CLOTHES WASHER,CLOTHES_WASHER_POWER,LIVING SPACE,153.20,2.0,20064.643,130.973,10032.321,3.000E-002,0.162,0.700,0.108,clothes washer,0.000,939.025
 ElectricEquipment Internal Gains Nominal, COOKING RANGE,COOKING_RANGE,LIVING SPACE,153.20,2.0,973.856,6.357,486.928,0.162,0.383,0.200,0.255,cooking range,0.000,142.183
 ElectricEquipment Internal Gains Nominal, DISHWASHER,DISHWASHER_POWER,LIVING SPACE,153.20,2.0,8445.341,55.127,4222.671,0.300,0.180,0.400,0.120,dishwasher,0.000,1140.121
 ElectricEquipment Internal Gains Nominal, FREEZER,FREEZER,LIVING SPACE,153.20,2.0,47.925,0.313,23.962,0.000,0.600,0.000,0.400,freezer,26.311,47.925
 ElectricEquipment Internal Gains Nominal, FRIDGE,REFRIGERATOR,LIVING SPACE,153.20,2.0,100.854,0.658,50.427,0.000,0.600,0.000,0.400,fridge,55.369,100.854
 ElectricEquipment Internal Gains Nominal, FRIDGE 1,REFRIGERATOR,LIVING SPACE,153.20,2.0,36.505,0.238,18.253,0.000,0.600,0.000,0.400,fridge,20.041,36.505
 ElectricEquipment Internal Gains Nominal, MECH VENT BATH FAN 0,MECH VENT BATH FAN 0 SCHEDULE,LIVING SPACE,153.20,2.0,15.000,9.791E-002,7.500,0.000,0.000,1.000,0.000,mech vent,0.000,15.000
 ElectricEquipment Internal Gains Nominal, MECH VENT HOUSE FAN,ALWAYS ON DISCRETE,LIVING SPACE,153.20,2.0,0.000,0.000,0.000,0.000,0.000,1.000,0.000,mech vent,0.000,0.000
 ElectricEquipment Internal Gains Nominal, MECH VENT HOUSE FAN CFIS,ALWAYS ON DISCRETE,LIVING SPACE,153.20,2.0,0.000,0.000,0.000,0.000,0.000,0.000,1.000,mech vent,0.000,0.000
 ElectricEquipment Internal Gains Nominal, MECH VENT RANGE FAN 0,MECH VENT RANGE FAN 0 SCHEDULE,LIVING SPACE,153.20,2.0,30.000,0.196,15.000,0.000,0.000,1.000,0.000,mech vent,0.000,30.000
 ElectricEquipment Internal Gains Nominal, MISC PLUG LOADS,PLUG_LOADS_OTHER,LIVING SPACE,153.20,2.0,318.059,2.076,159.029,4.500E-002,0.513,0.100,0.342,misc plug loads,125.315,318.059
 ElectricEquipment Internal Gains Nominal, MISC TV,PLUG_LOADS_TV,LIVING SPACE,153.20,2.0,240.621,1.571,120.310,0.000,0.600,0.000,0.400,misc tv,3.272,240.621
 ElectricEquipment Internal Gains Nominal, WHOLE HOUSE FAN,ALWAYS ON DISCRETE,LIVING SPACE,153.20,2.0,0.000,0.000,0.000,0.000,0.000,1.000,0.000,whole house fan,0.000,0.000
 ElectricEquipment Internal Gains Nominal, UNIT 2 CEILING FAN,UNIT 2 CEILING_FAN,UNIT 2 LIVING SPACE,153.20,2.0,77.653,0.507,38.826,0.000,0.558,0.000,0.442,ceiling fan,16.462,77.653
 ElectricEquipment Internal Gains Nominal, UNIT 2 CLOTHES DRYER,UNIT 2 CLOTHES_DRYER,UNIT 2 LIVING SPACE,153.20,2.0,1127.237,7.358,563.618,1.648E-002,8.011E-002,0.850,5.341E-002,clothes dryer,0.000,444.131
 ElectricEquipment Internal Gains Nominal, UNIT 2 CLOTHES WASHER,UNIT 2 CLOTHES_WASHER_POWER,UNIT 2 LIVING SPACE,153.20,2.0,20064.643,130.973,10032.321,3.000E-002,0.162,0.700,0.108,clothes washer,0.000,939.025
 ElectricEquipment Internal Gains Nominal, UNIT 2 COOKING RANGE,UNIT 2 COOKING_RANGE,UNIT 2 LIVING SPACE,153.20,2.0,973.856,6.357,486.928,0.162,0.383,0.200,0.255,cooking range,0.000,142.183
 ElectricEquipment Internal Gains Nominal, UNIT 2 DISHWASHER,UNIT 2 DISHWASHER_POWER,UNIT 2 LIVING SPACE,153.20,2.0,8445.341,55.127,4222.671,0.300,0.180,0.400,0.120,dishwasher,0.000,1140.121
 ElectricEquipment Internal Gains Nominal, UNIT 2 FREEZER,UNIT 2 FREEZER,UNIT 2 LIVING SPACE,153.20,2.0,47.925,0.313,23.962,0.000,0.600,0.000,0.400,freezer,26.311,47.925
 ElectricEquipment Internal Gains Nominal, UNIT 2 FRIDGE,UNIT 2 REFRIGERATOR,UNIT 2 LIVING SPACE,153.20,2.0,100.854,0.658,50.427,0.000,0.600,0.000,0.400,fridge,55.369,100.854
 ElectricEquipment Internal Gains Nominal, UNIT 2 FRIDGE 1,UNIT 2 REFRIGERATOR,UNIT 2 LIVING SPACE,153.20,2.0,36.505,0.238,18.253,0.000,0.600,0.000,0.400,fridge,20.041,36.505
 ElectricEquipment Internal Gains Nominal, UNIT 2 MECH VENT BATH FAN 0,UNIT 2 MECH VENT BATH FAN 0 SCHEDULE,UNIT 2 LIVING SPACE,153.20,2.0,15.000,9.791E-002,7.500,0.000,0.000,1.000,0.000,mech vent,0.000,15.000
 ElectricEquipment Internal Gains Nominal, UNIT 2 MECH VENT HOUSE FAN,UNIT 2 ALWAYS ON DISCRETE,UNIT 2 LIVING SPACE,153.20,2.0,0.000,0.000,0.000,0.000,0.000,1.000,0.000,mech vent,0.000,0.000
 ElectricEquipment Internal Gains Nominal, UNIT 2 MECH VENT HOUSE FAN CFIS,UNIT 2 ALWAYS ON DISCRETE,UNIT 2 LIVING SPACE,153.20,2.0,0.000,0.000,0.000,0.000,0.000,0.000,1.000,mech vent,0.000,0.000
 ElectricEquipment Internal Gains Nominal, UNIT 2 MECH VENT RANGE FAN 0,UNIT 2 MECH VENT RANGE FAN 0 SCHEDULE,UNIT 2 LIVING SPACE,153.20,2.0,30.000,0.196,15.000,0.000,0.000,1.000,0.000,mech vent,0.000,30.000
 ElectricEquipment Internal Gains Nominal, UNIT 2 MISC PLUG LOADS,UNIT 2 PLUG_LOADS_OTHER,UNIT 2 LIVING SPACE,153.20,2.0,318.059,2.076,159.029,4.500E-002,0.513,0.100,0.342,misc plug loads,125.315,318.059
 ElectricEquipment Internal Gains Nominal, UNIT 2 MISC TV,UNIT 2 PLUG_LOADS_TV,UNIT 2 LIVING SPACE,153.20,2.0,240.621,1.571,120.310,0.000,0.600,0.000,0.400,misc tv,3.272,240.621
 ElectricEquipment Internal Gains Nominal, UNIT 2 WHOLE HOUSE FAN,UNIT 2 ALWAYS ON DISCRETE,UNIT 2 LIVING SPACE,153.20,2.0,0.000,0.000,0.000,0.000,0.000,1.000,0.000,whole house fan,0.000,0.000
 ElectricEquipment Internal Gains Nominal, UNIT 3 CEILING FAN,UNIT 3 CEILING_FAN,UNIT 3 LIVING SPACE,153.20,2.0,77.653,0.507,38.826,0.000,0.558,0.000,0.442,ceiling fan,16.462,77.653
 ElectricEquipment Internal Gains Nominal, UNIT 3 CLOTHES DRYER,UNIT 3 CLOTHES_DRYER,UNIT 3 LIVING SPACE,153.20,2.0,1127.237,7.358,563.618,1.648E-002,8.011E-002,0.850,5.341E-002,clothes dryer,0.000,444.131
 ElectricEquipment Internal Gains Nominal, UNIT 3 CLOTHES WASHER,UNIT 3 CLOTHES_WASHER_POWER,UNIT 3 LIVING SPACE,153.20,2.0,20064.643,130.973,10032.321,3.000E-002,0.162,0.700,0.108,clothes washer,0.000,939.025
 ElectricEquipment Internal Gains Nominal, UNIT 3 COOKING RANGE,UNIT 3 COOKING_RANGE,UNIT 3 LIVING SPACE,153.20,2.0,973.856,6.357,486.928,0.162,0.383,0.200,0.255,cooking range,0.000,142.183
 ElectricEquipment Internal Gains Nominal, UNIT 3 DISHWASHER,UNIT 3 DISHWASHER_POWER,UNIT 3 LIVING SPACE,153.20,2.0,8445.341,55.127,4222.671,0.300,0.180,0.400,0.120,dishwasher,0.000,1140.121
 ElectricEquipment Internal Gains Nominal, UNIT 3 FREEZER,UNIT 3 FREEZER,UNIT 3 LIVING SPACE,153.20,2.0,47.925,0.313,23.962,0.000,0.600,0.000,0.400,freezer,26.311,47.925
 ElectricEquipment Internal Gains Nominal, UNIT 3 FRIDGE,UNIT 3 REFRIGERATOR,UNIT 3 LIVING SPACE,153.20,2.0,100.854,0.658,50.427,0.000,0.600,0.000,0.400,fridge,55.369,100.854
 ElectricEquipment Internal Gains Nominal, UNIT 3 FRIDGE 1,UNIT 3 REFRIGERATOR,UNIT 3 LIVING SPACE,153.20,2.0,36.505,0.238,18.253,0.000,0.600,0.000,0.400,fridge,20.041,36.505
 ElectricEquipment Internal Gains Nominal, UNIT 3 MECH VENT BATH FAN 0,UNIT 3 MECH VENT BATH FAN 0 SCHEDULE,UNIT 3 LIVING SPACE,153.20,2.0,15.000,9.791E-002,7.500,0.000,0.000,1.000,0.000,mech vent,0.000,15.000
 ElectricEquipment Internal Gains Nominal, UNIT 3 MECH VENT HOUSE FAN,UNIT 3 ALWAYS ON DISCRETE,UNIT 3 LIVING SPACE,153.20,2.0,0.000,0.000,0.000,0.000,0.000,1.000,0.000,mech vent,0.000,0.000
 ElectricEquipment Internal Gains Nominal, UNIT 3 MECH VENT HOUSE FAN CFIS,UNIT 3 ALWAYS ON DISCRETE,UNIT 3 LIVING SPACE,153.20,2.0,0.000,0.000,0.000,0.000,0.000,0.000,1.000,mech vent,0.000,0.000
 ElectricEquipment Internal Gains Nominal, UNIT 3 MECH VENT RANGE FAN 0,UNIT 3 MECH VENT RANGE FAN 0 SCHEDULE,UNIT 3 LIVING SPACE,153.20,2.0,30.000,0.196,15.000,0.000,0.000,1.000,0.000,mech vent,0.000,30.000
 ElectricEquipment Internal Gains Nominal, UNIT 3 MISC PLUG LOADS,UNIT 3 PLUG_LOADS_OTHER,UNIT 3 LIVING SPACE,153.20,2.0,318.059,2.076,159.029,4.500E-002,0.513,0.100,0.342,misc plug loads,125.315,318.059
 ElectricEquipment Internal Gains Nominal, UNIT 3 MISC TV,UNIT 3 PLUG_LOADS_TV,UNIT 3 LIVING SPACE,153.20,2.0,240.621,1.571,120.310,0.000,0.600,0.000,0.400,misc tv,3.272,240.621
 ElectricEquipment Internal Gains Nominal, UNIT 3 WHOLE HOUSE FAN,UNIT 3 ALWAYS ON DISCRETE,UNIT 3 LIVING SPACE,153.20,2.0,0.000,0.000,0.000,0.000,0.000,1.000,0.000,whole house fan,0.000,0.000
! <OtherEquipment Internal Gains Nominal>,Name,Schedule Name,Zone Name,Zone Floor Area {m2},# Zone Occupants,Equipment Level {W},Equipment/Floor Area {W/m2},Equipment per person {W/person},Fraction Latent,Fraction Radiant,Fraction Lost,Fraction Convected,Nominal Minimum Equipment Level {W},Nominal Maximum Equipment Level {W}
 OtherEquipment Internal Gains Nominal, CENTRAL_AC_AND_FURNACE_AIRLOOP_0_RETCONDTORP EQUIP,ALWAYS ON DISCRETE,CENTRAL AC AND FURNACE AIRLOOP RET AIR ZONE,1.00,0.0,0.000,0.000,N/A,0.000,0.000,0.000,1.000,0.000,0.000
 OtherEquipment Internal Gains Nominal, CENTRAL_AC_AND_FURNACE_AIRLOOP_0_RETLATLKTORP EQUIP,ALWAYS ON DISCRETE,CENTRAL AC AND FURNACE AIRLOOP RET AIR ZONE,1.00,0.0,0.000,0.000,N/A,1.000,0.000,0.000,0.000,0.000,0.000
 OtherEquipment Internal Gains Nominal, CENTRAL_AC_AND_FURNACE_AIRLOOP_0_RETSENSLKTORP EQUIP,ALWAYS ON DISCRETE,CENTRAL AC AND FURNACE AIRLOOP RET AIR ZONE,1.00,0.0,0.000,0.000,N/A,0.000,0.000,0.000,1.000,0.000,0.000
 OtherEquipment Internal Gains Nominal, CENTRAL_AC_AND_FURNACE_AIRLOOP_0_RETCONDTODZ EQUIP,ALWAYS ON DISCRETE,LIVING SPACE,153.20,2.0,0.000,0.000,0.000,0.000,0.000,1.000,0.000,0.000,0.000
 OtherEquipment Internal Gains Nominal, CENTRAL_AC_AND_FURNACE_AIRLOOP_0_SUPCONDTODZ EQUIP,ALWAYS ON DISCRETE,LIVING SPACE,153.20,2.0,0.000,0.000,0.000,0.000,0.000,1.000,0.000,0.000,0.000
 OtherEquipment Internal Gains Nominal, CENTRAL_AC_AND_FURNACE_AIRLOOP_0_SUPCONDTOLV EQUIP,ALWAYS ON DISCRETE,LIVING SPACE,153.20,2.0,0.000,0.000,0.000,0.000,0.000,0.000,1.000,0.000,0.000
 OtherEquipment Internal Gains Nominal, CENTRAL_AC_AND_FURNACE_AIRLOOP_0_SUPLATLKTODZ EQUIP,ALWAYS ON DISCRETE,LIVING SPACE,153.20,2.0,0.000,0.000,0.000,0.000,0.000,1.000,0.000,0.000,0.000
 OtherEquipment Internal Gains Nominal, CENTRAL_AC_AND_FURNACE_AIRLOOP_0_SUPLATLKTOLV EQUIP,ALWAYS ON DISCRETE,LIVING SPACE,153.20,2.0,0.000,0.000,0.000,1.000,0.000,0.000,0.000,0.000,0.000
 OtherEquipment Internal Gains Nominal, CENTRAL_AC_AND_FURNACE_AIRLOOP_0_SUPSENSLKTODZ EQUIP,ALWAYS ON DISCRETE,LIVING SPACE,153.20,2.0,0.000,0.000,0.000,0.000,0.000,1.000,0.000,0.000,0.000
 OtherEquipment Internal Gains Nominal, CENTRAL_AC_AND_FURNACE_AIRLOOP_0_SUPSENSLKTOLV EQUIP,ALWAYS ON DISCRETE,LIVING SPACE,153.20,2.0,0.000,0.000,0.000,0.000,0.000,0.000,1.000,0.000,0.000
 OtherEquipment Internal Gains Nominal, CLOTHES DRYER 1,CLOTHES_DRYER,LIVING SPACE,153.20,2.0,14975.521,97.753,7487.760,1.648E-002,8.011E-002,0.850,5.341E-002,0.000,5900.355
 OtherEquipment Internal Gains Nominal, COOKING RANGE 1,COOKING_RANGE,LIVING SPACE,153.20,2.0,28540.906,186.302,14270.453,0.162,0.383,0.200,0.255,0.000,4166.972
 OtherEquipment Internal Gains Nominal, MECH VENT HOUSE FAN LATENT LOAD EQUIP,ALWAYS ON DISCRETE,LIVING SPACE,153.20,2.0,0.000,0.000,0.000,1.000,0.000,0.000,0.000,0.000,0.000
 OtherEquipment Internal Gains Nominal, MECH VENT HOUSE FAN SENSIBLE LOAD EQUIP,ALWAYS ON DISCRETE,LIVING SPACE,153.20,2.0,0.000,0.000,0.000,0.000,0.000,0.000,1.000,0.000,0.000
 OtherEquipment Internal Gains Nominal, WATER HEATER EC ADJUSTMENT,ALWAYS ON DISCRETE,LIVING SPACE,153.20,2.0,1.000E-002,6.528E-005,5.000E-003,0.000,0.000,1.000,0.000,1.000E-002,1.000E-002
 OtherEquipment Internal Gains Nominal, WATER LATENT,FIXTURES,LIVING SPACE,153.20,2.0,2724.062,17.781,1362.031,1.000,0.000,0.000,0.000,0.000,465.815
 OtherEquipment Internal Gains Nominal, WATER SENSIBLE,FIXTURES,LIVING SPACE,153.20,2.0,-2684.678,-17.524,-1342.339,0.000,0.600,0.000,0.400,0.000,-459.080
 OtherEquipment Internal Gains Nominal, UNIT 2 CENTRAL_AC_AND_FURNACE_AIRLOOP_0_RETCONDTORP EQUIP,UNIT 2 ALWAYS ON DISCRETE,UNIT 2 CENTRAL AC AND FURNACE AIRLOOP RET AIR ZONE,1.00,0.0,0.000,0.000,N/A,0.000,0.000,0.000,1.000,0.000,0.000
 OtherEquipment Internal Gains Nominal, UNIT 2 CENTRAL_AC_AND_FURNACE_AIRLOOP_0_RETLATLKTORP EQUIP,UNIT 2 ALWAYS ON DISCRETE,UNIT 2 CENTRAL AC AND FURNACE AIRLOOP RET AIR ZONE,1.00,0.0,0.000,0.000,N/A,1.000,0.000,0.000,0.000,0.000,0.000
 OtherEquipment Internal Gains Nominal, UNIT 2 CENTRAL_AC_AND_FURNACE_AIRLOOP_0_RETSENSLKTORP EQUIP,UNIT 2 ALWAYS ON DISCRETE,UNIT 2 CENTRAL AC AND FURNACE AIRLOOP RET AIR ZONE,1.00,0.0,0.000,0.000,N/A,0.000,0.000,0.000,1.000,0.000,0.000
 OtherEquipment Internal Gains Nominal, UNIT 2 CENTRAL_AC_AND_FURNACE_AIRLOOP_0_RETCONDTODZ EQUIP,UNIT 2 ALWAYS ON DISCRETE,UNIT 2 LIVING SPACE,153.20,2.0,0.000,0.000,0.000,0.000,0.000,1.000,0.000,0.000,0.000
 OtherEquipment Internal Gains Nominal, UNIT 2 CENTRAL_AC_AND_FURNACE_AIRLOOP_0_SUPCONDTODZ EQUIP,UNIT 2 ALWAYS ON DISCRETE,UNIT 2 LIVING SPACE,153.20,2.0,0.000,0.000,0.000,0.000,0.000,1.000,0.000,0.000,0.000
 OtherEquipment Internal Gains Nominal, UNIT 2 CENTRAL_AC_AND_FURNACE_AIRLOOP_0_SUPCONDTOLV EQUIP,UNIT 2 ALWAYS ON DISCRETE,UNIT 2 LIVING SPACE,153.20,2.0,0.000,0.000,0.000,0.000,0.000,0.000,1.000,0.000,0.000
 OtherEquipment Internal Gains Nominal, UNIT 2 CENTRAL_AC_AND_FURNACE_AIRLOOP_0_SUPLATLKTODZ EQUIP,UNIT 2 ALWAYS ON DISCRETE,UNIT 2 LIVING SPACE,153.20,2.0,0.000,0.000,0.000,0.000,0.000,1.000,0.000,0.000,0.000
 OtherEquipment Internal Gains Nominal, UNIT 2 CENTRAL_AC_AND_FURNACE_AIRLOOP_0_SUPLATLKTOLV EQUIP,UNIT 2 ALWAYS ON DISCRETE,UNIT 2 LIVING SPACE,153.20,2.0,0.000,0.000,0.000,1.000,0.000,0.000,0.000,0.000,0.000
 OtherEquipment Internal Gains Nominal, UNIT 2 CENTRAL_AC_AND_FURNACE_AIRLOOP_0_SUPSENSLKTODZ EQUIP,UNIT 2 ALWAYS ON DISCRETE,UNIT 2 LIVING SPACE,153.20,2.0,0.000,0.000,0.000,0.000,0.000,1.000,0.000,0.000,0.000
 OtherEquipment Internal Gains Nominal, UNIT 2 CENTRAL_AC_AND_FURNACE_AIRLOOP_0_SUPSENSLKTOLV EQUIP,UNIT 2 ALWAYS ON DISCRETE,UNIT 2 LIVING SPACE,153.20,2.0,0.000,0.000,0.000,0.000,0.000,0.000,1.000,0.000,0.000
 OtherEquipment Internal Gains Nominal, UNIT 2 CLOTHES DRYER 1,UNIT 2 CLOTHES_DRYER,UNIT 2 LIVING SPACE,153.20,2.0,14975.521,97.753,7487.760,1.648E-002,8.011E-002,0.850,5.341E-002,0.000,5900.355
 OtherEquipment Internal Gains Nominal, UNIT 2 COOKING RANGE 1,UNIT 2 COOKING_RANGE,UNIT 2 LIVING SPACE,153.20,2.0,28540.906,186.302,14270.453,0.162,0.383,0.200,0.255,0.000,4166.972
 OtherEquipment Internal Gains Nominal, UNIT 2 MECH VENT HOUSE FAN LATENT LOAD EQUIP,UNIT 2 ALWAYS ON DISCRETE,UNIT 2 LIVING SPACE,153.20,2.0,0.000,0.000,0.000,1.000,0.000,0.000,0.000,0.000,0.000
 OtherEquipment Internal Gains Nominal, UNIT 2 MECH VENT HOUSE FAN SENSIBLE LOAD EQUIP,UNIT 2 ALWAYS ON DISCRETE,UNIT 2 LIVING SPACE,153.20,2.0,0.000,0.000,0.000,0.000,0.000,0.000,1.000,0.000,0.000
 OtherEquipment Internal Gains Nominal, UNIT 2 WATER HEATER EC ADJUSTMENT,UNIT 2 ALWAYS ON DISCRETE,UNIT 2 LIVING SPACE,153.20,2.0,1.000E-002,6.528E-005,5.000E-003,0.000,0.000,1.000,0.000,1.000E-002,1.000E-002
 OtherEquipment Internal Gains Nominal, UNIT 2 WATER LATENT,UNIT 2 FIXTURES,UNIT 2 LIVING SPACE,153.20,2.0,2724.062,17.781,1362.031,1.000,0.000,0.000,0.000,0.000,465.815
 OtherEquipment Internal Gains Nominal, UNIT 2 WATER SENSIBLE,UNIT 2 FIXTURES,UNIT 2 LIVING SPACE,153.20,2.0,-2684.678,-17.524,-1342.339,0.000,0.600,0.000,0.400,0.000,-459.080
 OtherEquipment Internal Gains Nominal, UNIT 3 CENTRAL_AC_AND_FURNACE_AIRLOOP_0_RETCONDTORP EQUIP,UNIT 3 ALWAYS ON DISCRETE,UNIT 3 CENTRAL AC AND FURNACE AIRLOOP RET AIR ZONE,1.00,0.0,0.000,0.000,N/A,0.000,0.000,0.000,1.000,0.000,0.000
 OtherEquipment Internal Gains Nominal, UNIT 3 CENTRAL_AC_AND_FURNACE_AIRLOOP_0_RETLATLKTORP EQUIP,UNIT 3 ALWAYS ON DISCRETE,UNIT 3 CENTRAL AC AND FURNACE AIRLOOP RET AIR ZONE,1.00,0.0,0.000,0.000,N/A,1.000,0.000,0.000,0.000,0.000,0.000
 OtherEquipment Internal Gains Nominal, UNIT 3 CENTRAL_AC_AND_FURNACE_AIRLOOP_0_RETSENSLKTORP EQUIP,UNIT 3 ALWAYS ON DISCRETE,UNIT 3 CENTRAL AC AND FURNACE AIRLOOP RET AIR ZONE,1.00,0.0,0.000,0.000,N/A,0.000,0.000,0.000,1.000,0.000,0.000
 OtherEquipment Internal Gains Nominal, UNIT 3 CENTRAL_AC_AND_FURNACE_AIRLOOP_0_RETCONDTODZ EQUIP,UNIT 3 ALWAYS ON DISCRETE,UNIT 3 LIVING SPACE,153.20,2.0,0.000,0.000,0.000,0.000,0.000,1.000,0.000,0.000,0.000
 OtherEquipment Internal Gains Nominal, UNIT 3 CENTRAL_AC_AND_FURNACE_AIRLOOP_0_SUPCONDTODZ EQUIP,UNIT 3 ALWAYS ON DISCRETE,UNIT 3 LIVING SPACE,153.20,2.0,0.000,0.000,0.000,0.000,0.000,1.000,0.000,0.000,0.000
 OtherEquipment Internal Gains Nominal, UNIT 3 CENTRAL_AC_AND_FURNACE_AIRLOOP_0_SUPCONDTOLV EQUIP,UNIT 3 ALWAYS ON DISCRETE,UNIT 3 LIVING SPACE,153.20,2.0,0.000,0.000,0.000,0.000,0.000,0.000,1.000,0.000,0.000
 OtherEquipment Internal Gains Nominal, UNIT 3 CENTRAL_AC_AND_FURNACE_AIRLOOP_0_SUPLATLKTODZ EQUIP,UNIT 3 ALWAYS ON DISCRETE,UNIT 3 LIVING SPACE,153.20,2.0,0.000,0.000,0.000,0.000,0.000,1.000,0.000,0.000,0.000
 OtherEquipment Internal Gains Nominal, UNIT 3 CENTRAL_AC_AND_FURNACE_AIRLOOP_0_SUPLATLKTOLV EQUIP,UNIT 3 ALWAYS ON DISCRETE,UNIT 3 LIVING SPACE,153.20,2.0,0.000,0.000,0.000,1.000,0.000,0.000,0.000,0.000,0.000
 OtherEquipment Internal Gains Nominal, UNIT 3 CENTRAL_AC_AND_FURNACE_AIRLOOP_0_SUPSENSLKTODZ EQUIP,UNIT 3 ALWAYS ON DISCRETE,UNIT 3 LIVING SPACE,153.20,2.0,0.000,0.000,0.000,0.000,0.000,1.000,0.000,0.000,0.000
 OtherEquipment Internal Gains Nominal, UNIT 3 CENTRAL_AC_AND_FURNACE_AIRLOOP_0_SUPSENSLKTOLV EQUIP,UNIT 3 ALWAYS ON DISCRETE,UNIT 3 LIVING SPACE,153.20,2.0,0.000,0.000,0.000,0.000,0.000,0.000,1.000,0.000,0.000
 OtherEquipment Internal Gains Nominal, UNIT 3 CLOTHES DRYER 1,UNIT 3 CLOTHES_DRYER,UNIT 3 LIVING SPACE,153.20,2.0,14975.521,97.753,7487.760,1.648E-002,8.011E-002,0.850,5.341E-002,0.000,5900.355
 OtherEquipment Internal Gains Nominal, UNIT 3 COOKING RANGE 1,UNIT 3 COOKING_RANGE,UNIT 3 LIVING SPACE,153.20,2.0,28540.906,186.302,14270.453,0.162,0.383,0.200,0.255,0.000,4166.972
 OtherEquipment Internal Gains Nominal, UNIT 3 MECH VENT HOUSE FAN LATENT LOAD EQUIP,UNIT 3 ALWAYS ON DISCRETE,UNIT 3 LIVING SPACE,153.20,2.0,0.000,0.000,0.000,1.000,0.000,0.000,0.000,0.000,0.000
 OtherEquipment Internal Gains Nominal, UNIT 3 MECH VENT HOUSE FAN SENSIBLE LOAD EQUIP,UNIT 3 ALWAYS ON DISCRETE,UNIT 3 LIVING SPACE,153.20,2.0,0.000,0.000,0.000,0.000,0.000,0.000,1.000,0.000,0.000
 OtherEquipment Internal Gains Nominal, UNIT 3 WATER HEATER EC ADJUSTMENT,UNIT 3 ALWAYS ON DISCRETE,UNIT 3 LIVING SPACE,153.20,2.0,1.000E-002,6.528E-005,5.000E-003,0.000,0.000,1.000,0.000,1.000E-002,1.000E-002
 OtherEquipment Internal Gains Nominal, UNIT 3 WATER LATENT,UNIT 3 FIXTURES,UNIT 3 LIVING SPACE,153.20,2.0,2724.062,17.781,1362.031,1.000,0.000,0.000,0.000,0.000,465.815
 OtherEquipment Internal Gains Nominal, UNIT 3 WATER SENSIBLE,UNIT 3 FIXTURES,UNIT 3 LIVING SPACE,153.20,2.0,-2684.678,-17.524,-1342.339,0.000,0.600,0.000,0.400,0.000,-459.080
! <Shadowing/Sun Position Calculations Annual Simulations>, Shading Calculation Method, Shading Calculation Update Frequency Method, Shading Calculation Update Frequency {days}, Maximum Figures in Shadow Overlap Calculations {}, Polygon Clipping Algorithm, Pixel Counting Resolution, Sky Diffuse Modeling Algorithm, Output External Shading Calculation Results, Disable Self-Shading Within Shading Zone Groups, Disable Self-Shading From Shading Zone Groups to Other Zones
Shadowing/Sun Position Calculations Annual Simulations,PolygonClipping,Periodic,20,200,SutherlandHodgman,512,DetailedSkyDiffuseModeling,No,No,No
! <ZoneInfiltration Airflow Stats Nominal>,Name,Schedule Name,Zone Name, Zone Floor Area {m2}, # Zone Occupants,Design Volume Flow Rate {m3/s},Volume Flow Rate/Floor Area {m3/s-m2},Volume Flow Rate/Exterior Surface Area {m3/s-m2},ACH - Air Changes per Hour,Equation A - Constant Term Coefficient {},Equation B - Temperature Term Coefficient {1/C},Equation C - Velocity Term Coefficient {s/m}, Equation D - Velocity Squared Term Coefficient {s2/m2}
 ZoneInfiltration Airflow Stats Nominal, INFIL FLOW,ALWAYS ON DISCRETE,LIVING SPACE,153.20,2.0,0.000,0.000,0.000,0.000,1.000,0.000,0.000,0.000
 ZoneInfiltration Airflow Stats Nominal, NATURAL VENT FLOW,ALWAYS ON DISCRETE,LIVING SPACE,153.20,2.0,0.000,0.000,0.000,0.000,1.000,0.000,0.000,0.000
 ZoneInfiltration Airflow Stats Nominal, WHOLE HOUSE FAN FLOW,ALWAYS ON DISCRETE,LIVING SPACE,153.20,2.0,0.000,0.000,0.000,0.000,1.000,0.000,0.000,0.000
 ZoneInfiltration Airflow Stats Nominal, UNIT 2 INFIL FLOW,UNIT 2 ALWAYS ON DISCRETE,UNIT 2 LIVING SPACE,153.20,2.0,0.000,0.000,0.000,0.000,1.000,0.000,0.000,0.000
 ZoneInfiltration Airflow Stats Nominal, UNIT 2 NATURAL VENT FLOW,UNIT 2 ALWAYS ON DISCRETE,UNIT 2 LIVING SPACE,153.20,2.0,0.000,0.000,0.000,0.000,1.000,0.000,0.000,0.000
 ZoneInfiltration Airflow Stats Nominal, UNIT 2 WHOLE HOUSE FAN FLOW,UNIT 2 ALWAYS ON DISCRETE,UNIT 2 LIVING SPACE,153.20,2.0,0.000,0.000,0.000,0.000,1.000,0.000,0.000,0.000
 ZoneInfiltration Airflow Stats Nominal, UNIT 3 INFIL FLOW,UNIT 3 ALWAYS ON DISCRETE,UNIT 3 LIVING SPACE,153.20,2.0,0.000,0.000,0.000,0.000,1.000,0.000,0.000,0.000
 ZoneInfiltration Airflow Stats Nominal, UNIT 3 NATURAL VENT FLOW,UNIT 3 ALWAYS ON DISCRETE,UNIT 3 LIVING SPACE,153.20,2.0,0.000,0.000,0.000,0.000,1.000,0.000,0.000,0.000
 ZoneInfiltration Airflow Stats Nominal, UNIT 3 WHOLE HOUSE FAN FLOW,UNIT 3 ALWAYS ON DISCRETE,UNIT 3 LIVING SPACE,153.20,2.0,0.000,0.000,0.000,0.000,1.000,0.000,0.000,0.000
! <AirFlow Model>, Simple
 AirFlow Model, Simple
! <RoomAir Model>, Zone Name, Mixing/Mundt/UCSDDV/UCSDCV/UCSDUFI/UCSDUFE/User Defined
RoomAir Model,CENTRAL AC AND FURNACE AIRLOOP RET AIR ZONE,Mixing/Well-Stirred
RoomAir Model,LIVING SPACE,Mixing/Well-Stirred
RoomAir Model,UNIT 2 CENTRAL AC AND FURNACE AIRLOOP RET AIR ZONE,Mixing/Well-Stirred
RoomAir Model,UNIT 2 LIVING SPACE,Mixing/Well-Stirred
RoomAir Model,UNIT 3 CENTRAL AC AND FURNACE AIRLOOP RET AIR ZONE,Mixing/Well-Stirred
RoomAir Model,UNIT 3 LIVING SPACE,Mixing/Well-Stirred
! <AirflowNetwork Model:Control>, No Multizone or Distribution/Multizone with Distribution/Multizone without Distribution/Multizone with Distribution only during Fan Operation
AirflowNetwork Model:Control,NoMultizoneOrDistribution
! <Water Heater Information>,Type,Name,Volume {m3},Maximum Capacity {W},Standard Rated Recovery Efficiency, Standard Rated Energy Factor
! <Component Sizing Information>, Component Type, Component Name, Input Field Description, Value
 Component Sizing Information, AirTerminal:SingleDuct:ConstantVolume:NoReheat, CENTRAL AC AND FURNACE TERMINAL, User-Specified Maximum Air Flow Rate [m3/s], 0.67772
 Component Sizing Information, AirTerminal:SingleDuct:ConstantVolume:NoReheat, UNIT 2 CENTRAL AC AND FURNACE TERMINAL, User-Specified Maximum Air Flow Rate [m3/s], 0.67772
 Component Sizing Information, AirTerminal:SingleDuct:ConstantVolume:NoReheat, UNIT 3 CENTRAL AC AND FURNACE TERMINAL, User-Specified Maximum Air Flow Rate [m3/s], 0.66875
 Component Sizing Information, AirLoopHVAC:UnitarySystem, CENTRAL AC AND FURNACE UNITARY SYSTEM, User-Specified Supply Air Flow Rate [m3/s], 0.67772
 Component Sizing Information, AirLoopHVAC:UnitarySystem, CENTRAL AC AND FURNACE UNITARY SYSTEM, User-Specified Heating Supply Air Flow Rate [m3/s], 0.27892
 Component Sizing Information, AirLoopHVAC:UnitarySystem, CENTRAL AC AND FURNACE UNITARY SYSTEM, User-Specified Cooling Supply Air Flow Rate [m3/s], 0.67772
 Component Sizing Information, AirLoopHVAC:UnitarySystem, CENTRAL AC AND FURNACE UNITARY SYSTEM, User-Specified No Load Supply Air Flow Rate [m3/s], 0.00000
 Component Sizing Information, AirLoopHVAC:UnitarySystem, CENTRAL AC AND FURNACE UNITARY SYSTEM, User-Specified Nominal Cooling Capacity [W], 10117.98563
 Component Sizing Information, AirLoopHVAC:UnitarySystem, CENTRAL AC AND FURNACE UNITARY SYSTEM, User-Specified Nominal Heating Capacity [W], 9510.74237
 Component Sizing Information, AirLoopHVAC:UnitarySystem, CENTRAL AC AND FURNACE UNITARY SYSTEM, User-Specified Maximum Supply Air Temperature [C], 48.88889
 Component Sizing Information, AirLoopHVAC:UnitarySystem, CENTRAL AC AND FURNACE UNITARY SYSTEM, Fraction of Supply Air Flow That Goes Through the Controlling Zone, 1.00000
 Component Sizing Information, Fan:OnOff, CENTRAL AC AND FURNACE SUPPLY FAN, User-Specified Maximum Flow Rate [m3/s], 0.67772
 Component Sizing Information, Coil:Cooling:DX:SingleSpeed, CENTRAL AC AND FURNACE CLG COIL, User-Specified Rated Air Flow Rate [m3/s], 0.53524
 Component Sizing Information, Coil:Cooling:DX:SingleSpeed, CENTRAL AC AND FURNACE CLG COIL, User-Specified Gross Rated Total Cooling Capacity [W], 10117.98563
 Component Sizing Information, Coil:Cooling:DX:SingleSpeed, CENTRAL AC AND FURNACE CLG COIL, User-Specified Gross Rated Sensible Heat Ratio, 0.74061
! <DX Cooling Coil Standard Rating Information>, Component Type, Component Name, Standard Rating (Net) Cooling Capacity {W}, Standard Rated Net COP {W/W}, EER {Btu/W-h}, SEER User {Btu/W-h}, SEER Standard {Btu/W-h}, IEER {Btu/W-h}
 DX Cooling Coil Standard Rating Information, Coil:Cooling:DX:SingleSpeed, CENTRAL AC AND FURNACE CLG COIL, 9617.3, 3.29, 11.22, 13.19, 11.96, 12.13
 Component Sizing Information, Coil:Heating:Fuel, CENTRAL AC AND FURNACE HTG COIL, User-Specified Nominal Capacity [W], 9510.74237
 Component Sizing Information, AirLoopHVAC:UnitarySystem, UNIT 2 CENTRAL AC AND FURNACE UNITARY SYSTEM, User-Specified Supply Air Flow Rate [m3/s], 0.67772
 Component Sizing Information, AirLoopHVAC:UnitarySystem, UNIT 2 CENTRAL AC AND FURNACE UNITARY SYSTEM, User-Specified Heating Supply Air Flow Rate [m3/s], 0.27892
 Component Sizing Information, AirLoopHVAC:UnitarySystem, UNIT 2 CENTRAL AC AND FURNACE UNITARY SYSTEM, User-Specified Cooling Supply Air Flow Rate [m3/s], 0.67772
 Component Sizing Information, AirLoopHVAC:UnitarySystem, UNIT 2 CENTRAL AC AND FURNACE UNITARY SYSTEM, User-Specified No Load Supply Air Flow Rate [m3/s], 0.00000
 Component Sizing Information, AirLoopHVAC:UnitarySystem, UNIT 2 CENTRAL AC AND FURNACE UNITARY SYSTEM, User-Specified Nominal Cooling Capacity [W], 10122.08862
 Component Sizing Information, AirLoopHVAC:UnitarySystem, UNIT 2 CENTRAL AC AND FURNACE UNITARY SYSTEM, User-Specified Nominal Heating Capacity [W], 9510.74237
 Component Sizing Information, AirLoopHVAC:UnitarySystem, UNIT 2 CENTRAL AC AND FURNACE UNITARY SYSTEM, User-Specified Maximum Supply Air Temperature [C], 48.88889
 Component Sizing Information, AirLoopHVAC:UnitarySystem, UNIT 2 CENTRAL AC AND FURNACE UNITARY SYSTEM, Fraction of Supply Air Flow That Goes Through the Controlling Zone, 1.00000
 Component Sizing Information, Fan:OnOff, UNIT 2 CENTRAL AC AND FURNACE SUPPLY FAN, User-Specified Maximum Flow Rate [m3/s], 0.67772
 Component Sizing Information, Coil:Cooling:DX:SingleSpeed, UNIT 2 CENTRAL AC AND FURNACE CLG COIL, User-Specified Rated Air Flow Rate [m3/s], 0.53546
 Component Sizing Information, Coil:Cooling:DX:SingleSpeed, UNIT 2 CENTRAL AC AND FURNACE CLG COIL, User-Specified Gross Rated Total Cooling Capacity [W], 10122.08862
 Component Sizing Information, Coil:Cooling:DX:SingleSpeed, UNIT 2 CENTRAL AC AND FURNACE CLG COIL, User-Specified Gross Rated Sensible Heat Ratio, 0.74061
 DX Cooling Coil Standard Rating Information, Coil:Cooling:DX:SingleSpeed, UNIT 2 CENTRAL AC AND FURNACE CLG COIL, 9621.2, 3.29, 11.22, 13.19, 11.96, 12.13
 Component Sizing Information, Coil:Heating:Fuel, UNIT 2 CENTRAL AC AND FURNACE HTG COIL, User-Specified Nominal Capacity [W], 9510.74237
 Component Sizing Information, AirLoopHVAC:UnitarySystem, UNIT 3 CENTRAL AC AND FURNACE UNITARY SYSTEM, User-Specified Supply Air Flow Rate [m3/s], 0.66875
 Component Sizing Information, AirLoopHVAC:UnitarySystem, UNIT 3 CENTRAL AC AND FURNACE UNITARY SYSTEM, User-Specified Heating Supply Air Flow Rate [m3/s], 0.27892
 Component Sizing Information, AirLoopHVAC:UnitarySystem, UNIT 3 CENTRAL AC AND FURNACE UNITARY SYSTEM, User-Specified Cooling Supply Air Flow Rate [m3/s], 0.66875
 Component Sizing Information, AirLoopHVAC:UnitarySystem, UNIT 3 CENTRAL AC AND FURNACE UNITARY SYSTEM, User-Specified No Load Supply Air Flow Rate [m3/s], 0.00000
 Component Sizing Information, AirLoopHVAC:UnitarySystem, UNIT 3 CENTRAL AC AND FURNACE UNITARY SYSTEM, User-Specified Nominal Cooling Capacity [W], 9983.46601
 Component Sizing Information, AirLoopHVAC:UnitarySystem, UNIT 3 CENTRAL AC AND FURNACE UNITARY SYSTEM, User-Specified Nominal Heating Capacity [W], 9510.74237
 Component Sizing Information, AirLoopHVAC:UnitarySystem, UNIT 3 CENTRAL AC AND FURNACE UNITARY SYSTEM, User-Specified Maximum Supply Air Temperature [C], 48.88889
 Component Sizing Information, AirLoopHVAC:UnitarySystem, UNIT 3 CENTRAL AC AND FURNACE UNITARY SYSTEM, Fraction of Supply Air Flow That Goes Through the Controlling Zone, 1.00000
 Component Sizing Information, Fan:OnOff, UNIT 3 CENTRAL AC AND FURNACE SUPPLY FAN, User-Specified Maximum Flow Rate [m3/s], 0.66875
 Component Sizing Information, Coil:Cooling:DX:SingleSpeed, UNIT 3 CENTRAL AC AND FURNACE CLG COIL, User-Specified Rated Air Flow Rate [m3/s], 0.52813
 Component Sizing Information, Coil:Cooling:DX:SingleSpeed, UNIT 3 CENTRAL AC AND FURNACE CLG COIL, User-Specified Gross Rated Total Cooling Capacity [W], 9983.46601
 Component Sizing Information, Coil:Cooling:DX:SingleSpeed, UNIT 3 CENTRAL AC AND FURNACE CLG COIL, User-Specified Gross Rated Sensible Heat Ratio, 0.74061
 DX Cooling Coil Standard Rating Information, Coil:Cooling:DX:SingleSpeed, UNIT 3 CENTRAL AC AND FURNACE CLG COIL, 9489.5, 3.29, 11.22, 13.19, 11.96, 12.13
 Component Sizing Information, Coil:Heating:Fuel, UNIT 3 CENTRAL AC AND FURNACE HTG COIL, User-Specified Nominal Capacity [W], 9510.74237
Water Heater Information,WaterHeater:Mixed,WATER HEATER,0.1078,10550.5,5.159,0.6895
Water Heater Information,WaterHeater:Mixed,UNIT 2 WATER HEATER,0.1078,10550.5,5.159,0.6895
Water Heater Information,WaterHeater:Mixed,UNIT 3 WATER HEATER,0.1078,10550.5,5.159,0.6895
 Component Sizing Information, WaterHeater:Mixed, WATER HEATER, Use Side Design Flow Rate [m3/s], 5.71205E-004
 Component Sizing Information, WaterHeater:Mixed, UNIT 2 WATER HEATER, Use Side Design Flow Rate [m3/s], 5.71205E-004
 Component Sizing Information, WaterHeater:Mixed, UNIT 3 WATER HEATER, Use Side Design Flow Rate [m3/s], 5.71205E-004
! <Environment>,Environment Name,Environment Type, Start Date, End Date, Start DayOfWeek, Duration {#days}, Source:Start DayOfWeek,  Use Daylight Saving, Use Holidays, Apply Weekend Holiday Rule,  Use Rain Values, Use Snow Values, Sky Temperature Model
! <Environment:Special Days>, Special Day Name, Special Day Type, Source, Start Date, Duration {#days}
! <Environment:Daylight Saving>, Daylight Saving Indicator, Source, Start Date, End Date
! <Environment:WarmupDays>, NumberofWarmupDays
Environment,RUN PERIOD 1,WeatherFileRunPeriod,01/01/2017,12/31/2017,Sunday,365,Use RunPeriod Specified Day,No,No,No,Yes,Yes,Clark and Allen
Environment:Daylight Saving,Yes,InputFile,03/12,11/05
Environment:WarmupDays,  3
! <Tabular Report>,Style,Unit Conversion
Tabular Report,HTML,None
! <Warmup Convergence Information>,Zone Name,Environment Type/Name,Average Warmup Temperature Difference {deltaC},Std Dev Warmup Temperature Difference {deltaC},Max Temperature Pass/Fail Convergence,Min Temperature Pass/Fail Convergence,Average Warmup Load Difference {W},Std Dev Warmup Load Difference {W},Heating Load Pass/Fail Convergence,Cooling Load Pass/Fail Convergence
 Warmup Convergence Information,CENTRAL AC AND FURNACE AIRLOOP RET AIR ZONE,RunPeriod: RUN PERIOD 1,0.2432019933,0.2788843222,Pass,Pass,0.8698572088,1.0041810307,Pass,Pass
 Warmup Convergence Information,LIVING SPACE,RunPeriod: RUN PERIOD 1,0.2314730342,0.4770784734,Pass,Pass,0.2691312379,0.3995065809,Pass,Pass
 Warmup Convergence Information,UNIT 2 CENTRAL AC AND FURNACE AIRLOOP RET AIR ZONE,RunPeriod: RUN PERIOD 1,0.2431532221,0.2790202660,Pass,Pass,0.8684214146,1.0016498353,Pass,Pass
 Warmup Convergence Information,UNIT 2 LIVING SPACE,RunPeriod: RUN PERIOD 1,0.2314734693,0.4763251217,Pass,Pass,0.2730522404,0.4121436024,Pass,Pass
 Warmup Convergence Information,UNIT 3 CENTRAL AC AND FURNACE AIRLOOP RET AIR ZONE,RunPeriod: RUN PERIOD 1,0.2436607138,0.2742135599,Pass,Pass,0.9560557841,1.1434461403,Pass,Pass
 Warmup Convergence Information,UNIT 3 LIVING SPACE,RunPeriod: RUN PERIOD 1,0.2314768272,0.4756525223,Pass,Pass,0.2905465810,0.4812498602,Pass,Pass
! <Program Control Information:Threads/Parallel Sims>, Threading Supported,Maximum Number of Threads, Env Set Threads (OMP_NUM_THREADS), EP Env Set Threads (EP_OMP_NUM_THREADS), IDF Set Threads, Number of Threads Used (Interior Radiant Exchange), Number Nominal Surfaces, Number Parallel Sims
Program Control:Threads/Parallel Sims, No,1, N/A, N/A, N/A, N/A, N/A, N/A
End of Data
