Program Version,EnergyPlus, Version 9.4.0-998c4b761e, YMD=2021.04.17 02:44
! This file shows details about the branches, nodes, and other
! elements of the flow connections.
! This file is intended for use in "debugging" potential problems
! that may also be detected by the program, but may be more easily
! identified by "eye".
! This file is also intended to support software which draws a
! schematic diagram of the HVAC system.
! ===============================================================
! #Nodes,<Number of Unique Nodes>
 #Nodes,256
! <Node>,<NodeNumber>,<Node Name>,<Node Fluid Type>,<# Times Node Referenced After Definition>
 Node,1,BUILDING STORY 1 THERMALZONE VAV TERMINAL OUTLET AIR NODE,Air,4
 Node,2,BUILDING STORY 1 THERMALZONE RETURN AIR NODE,Air,2
 Node,3,BUILDING STORY 1 THERMALZONE 1 VAV TERMINAL OUTLET AIR NODE,Air,4
 Node,4,BUILDING STORY 1 THERMALZONE 1 RETURN AIR NODE,Air,2
 Node,5,BUILDING STORY 1 THERMALZONE 2 VAV TERMINAL OUTLET AIR NODE,Air,4
 Node,6,BUILDING STORY 1 THERMALZONE 2 RETURN AIR NODE,Air,2
 Node,7,BUILDING STORY 1 THERMALZONE 3 VAV TERMINAL OUTLET AIR NODE,Air,4
 Node,8,BUILDING STORY 1 THERMALZONE 3 RETURN AIR NODE,Air,2
 Node,9,BUILDING STORY 1 THERMALZONE 4 VAV TERMINAL OUTLET AIR NODE,Air,4
 Node,10,BUILDING STORY 1 THERMALZONE 4 RETURN AIR NODE,Air,2
 Node,11,BUILDING STORY 2 THERMALZONE VAV TERMINAL OUTLET AIR NODE,Air,4
 Node,12,BUILDING STORY 2 THERMALZONE RETURN AIR NODE,Air,2
 Node,13,BUILDING STORY 2 THERMALZONE 1 VAV TERMINAL OUTLET AIR NODE,Air,4
 Node,14,BUILDING STORY 2 THERMALZONE 1 RETURN AIR NODE,Air,2
 Node,15,BUILDING STORY 2 THERMALZONE 2 VAV TERMINAL OUTLET AIR NODE,Air,4
 Node,16,BUILDING STORY 2 THERMALZONE 2 RETURN AIR NODE,Air,2
 Node,17,BUILDING STORY 2 THERMALZONE 3 VAV TERMINAL OUTLET AIR NODE,Air,4
 Node,18,BUILDING STORY 2 THERMALZONE 3 RETURN AIR NODE,Air,2
 Node,19,BUILDING STORY 2 THERMALZONE 4 VAV TERMINAL OUTLET AIR NODE,Air,4
 Node,20,BUILDING STORY 2 THERMALZONE 4 RETURN AIR NODE,Air,2
 Node,21,BUILDING STORY 3 THERMALZONE VAV TERMINAL OUTLET AIR NODE,Air,4
 Node,22,BUILDING STORY 3 THERMALZONE RETURN AIR NODE,Air,2
 Node,23,BUILDING STORY 3 THERMALZONE 1 VAV TERMINAL OUTLET AIR NODE,Air,4
 Node,24,BUILDING STORY 3 THERMALZONE 1 RETURN AIR NODE,Air,2
 Node,25,BUILDING STORY 3 THERMALZONE 2 VAV TERMINAL OUTLET AIR NODE,Air,4
 Node,26,BUILDING STORY 3 THERMALZONE 2 RETURN AIR NODE,Air,2
 Node,27,BUILDING STORY 3 THERMALZONE 3 VAV TERMINAL OUTLET AIR NODE,Air,4
 Node,28,BUILDING STORY 3 THERMALZONE 3 RETURN AIR NODE,Air,2
 Node,29,BUILDING STORY 3 THERMALZONE 4 VAV TERMINAL OUTLET AIR NODE,Air,4
 Node,30,BUILDING STORY 3 THERMALZONE 4 RETURN AIR NODE,Air,2
 Node,31,5 ZONE VAV SUPPLY OUTLET NODE,Air,10
 Node,32,5 ZONE VAV DEMAND INLET NODE,Air,3
 Node,33,5 ZONE VAV 1 SUPPLY OUTLET NODE,Air,10
 Node,34,5 ZONE VAV 1 DEMAND INLET NODE,Air,3
 Node,35,5 ZONE VAV 2 SUPPLY OUTLET NODE,Air,10
 Node,36,5 ZONE VAV 2 DEMAND INLET NODE,Air,3
 Node,37,5 ZONE VAV SUPPLY INLET NODE,Air,4
 Node,38,5 ZONE VAV MIXED AIR NODE,Air,7
 Node,39,5 ZONE VAV CLG COIL OUTLET AIR NODE,Air,5
 Node,40,5 ZONE VAV MAIN HTG COIL OUTLET AIR NODE,Air,8
 Node,41,5 ZONE VAV 1 SUPPLY INLET NODE,Air,4
 Node,42,5 ZONE VAV 1 MIXED AIR NODE,Air,7
 Node,43,5 ZONE VAV 1 CLG COIL OUTLET AIR NODE,Air,5
 Node,44,5 ZONE VAV 1 MAIN HTG COIL OUTLET AIR NODE,Air,8
 Node,45,5 ZONE VAV 2 SUPPLY INLET NODE,Air,4
 Node,46,5 ZONE VAV 2 MIXED AIR NODE,Air,7
 Node,47,5 ZONE VAV 2 CLG COIL OUTLET AIR NODE,Air,5
 Node,48,5 ZONE VAV 2 MAIN HTG COIL OUTLET AIR NODE,Air,8
 Node,49,CHILLED WATER LOOP SUPPLY INLET NODE,Water,2
 Node,50,CHILLED WATER LOOP PRIMARY PUMP OUTLET WATER NODE,Water,1
 Node,51,90.1-2013 WATERCOOLED  ROTARY SCREW CHILLER 0 SUPPLY INLET WATER NODE,Water,1
 Node,52,90.1-2013 WATERCOOLED  ROTARY SCREW CHILLER 0 SUPPLY OUTLET WATER NODE,Water,1
 Node,53,CHILLED WATER LOOP CHILLER BYPASS INLET WATER NODE,Water,1
 Node,54,CHILLED WATER LOOP CHILLER BYPASS OUTLET WATER NODE,Water,1
 Node,55,CHILLED WATER LOOP SUPPLY OUTLET INLET WATER NODE,Water,1
 Node,56,CHILLED WATER LOOP SUPPLY OUTLET NODE,Water,4
 Node,57,CHILLED WATER LOOP DEMAND INLET NODE,Water,2
 Node,58,CHILLED WATER LOOP SECONDARY PUMP INLET WATER NODE,Water,3
 Node,59,CHILLED WATER LOOP SECONDARY PUMP OUTLET WATER NODE,Water,1
 Node,60,CHILLED WATER LOOP COIL BYPASS INLET WATER NODE,Water,1
 Node,61,CHILLED WATER LOOP COIL BYPASS OUTLET WATER NODE,Water,1
 Node,62,5 ZONE VAV CLG COIL INLET WATER NODE,Water,2
 Node,63,5 ZONE VAV CLG COIL OUTLET WATER NODE,Water,1
 Node,64,5 ZONE VAV 1 CLG COIL INLET WATER NODE,Water,2
 Node,65,5 ZONE VAV 1 CLG COIL OUTLET WATER NODE,Water,1
 Node,66,5 ZONE VAV 2 CLG COIL INLET WATER NODE,Water,2
 Node,67,5 ZONE VAV 2 CLG COIL OUTLET WATER NODE,Water,1
 Node,68,CHILLED WATER LOOP DEMAND BYPASS PIPE INLET NODE,Water,1
 Node,69,CHILLED WATER LOOP DEMAND BYPASS PIPE OUTLET NODE,Water,1
 Node,70,CHILLED WATER LOOP DEMAND OUTLET INLET WATER NODE,Water,1
 Node,71,CHILLED WATER LOOP DEMAND OUTLET NODE,Water,2
 Node,72,CONDENSER WATER LOOP SUPPLY INLET NODE,Water,2
 Node,73,CONDENSER WATER LOOP CONSTANT PUMP OUTLET WATER NODE,Water,1
 Node,74,PROPELLER OR AXIAL VARIABLE SPEED FAN OPEN COOLING TOWER INLET WATER NODE,Water,1
 Node,75,PROPELLER OR AXIAL VARIABLE SPEED FAN OPEN COOLING TOWER OUTLET WATER NODE,Water,1
 Node,76,CONDENSER WATER LOOP COOLING TOWER BYPASS INLET WATER NODE,Water,1
 Node,77,CONDENSER WATER LOOP COOLING TOWER BYPASS OUTLET WATER NODE,Water,1
 Node,78,CONDENSER WATER LOOP SUPPLY OUTLET INLET WATER NODE,Water,1
 Node,79,CONDENSER WATER LOOP SUPPLY OUTLET NODE,Water,4
 Node,80,CONDENSER WATER LOOP DEMAND INLET NODE,Water,2
 Node,81,CONDENSER WATER LOOP DEMAND INLET OUTLET WATER NODE,Water,1
 Node,82,CONDENSER WATER LOOP CHILLER BYPASS INLET WATER NODE,Water,1
 Node,83,CONDENSER WATER LOOP CHILLER BYPASS OUTLET WATER NODE,Water,1
 Node,84,90.1-2013 WATERCOOLED  ROTARY SCREW CHILLER 0 DEMAND INLET WATER NODE,Water,1
 Node,85,90.1-2013 WATERCOOLED  ROTARY SCREW CHILLER 0 DEMAND OUTLET WATER NODE,Water,1
 Node,86,CONDENSER WATER LOOP DEMAND BYPASS PIPE INLET NODE,Water,1
 Node,87,CONDENSER WATER LOOP DEMAND BYPASS PIPE OUTLET NODE,Water,1
 Node,88,CONDENSER WATER LOOP DEMAND OUTLET INLET WATER NODE,Water,1
 Node,89,CONDENSER WATER LOOP DEMAND OUTLET NODE,Water,2
 Node,90,HOT WATER LOOP SUPPLY INLET NODE,Water,2
 Node,91,HOT WATER LOOP PUMP OUTLET WATER NODE,Water,1
 Node,92,BOILER INLET WATER NODE,Water,1
 Node,93,BOILER OUTLET WATER NODE,Water,1
 Node,94,HOT WATER LOOP SUPPLY EQUIPMENT BYPASS INLET WATER NODE,Water,1
 Node,95,HOT WATER LOOP SUPPLY EQUIPMENT BYPASS OUTLET WATER NODE,Water,1
 Node,96,HOT WATER LOOP SUPPLY OUTLET INLET WATER NODE,Water,1
 Node,97,HOT WATER LOOP SUPPLY OUTLET NODE,Water,4
 Node,98,HOT WATER LOOP DEMAND INLET NODE,Water,2
 Node,99,HOT WATER LOOP DEMAND INLET OUTLET WATER NODE,Water,1
 Node,100,HOT WATER LOOP COIL BYPASS INLET WATER NODE,Water,1
 Node,101,HOT WATER LOOP COIL BYPASS OUTLET WATER NODE,Water,1
 Node,102,5 ZONE VAV MAIN HTG COIL INLET WATER NODE,Water,2
 Node,103,5 ZONE VAV MAIN HTG COIL OUTLET WATER NODE,Water,1
 Node,104,BUILDING STORY 1 THERMALZONE REHEAT COIL INLET WATER NODE,Water,1
 Node,105,BUILDING STORY 1 THERMALZONE REHEAT COIL OUTLET WATER NODE,Water,1
 Node,106,BUILDING STORY 1 THERMALZONE 1 REHEAT COIL INLET WATER NODE,Water,1
 Node,107,BUILDING STORY 1 THERMALZONE 1 REHEAT COIL OUTLET WATER NODE,Water,1
 Node,108,BUILDING STORY 1 THERMALZONE 2 REHEAT COIL INLET WATER NODE,Water,1
 Node,109,BUILDING STORY 1 THERMALZONE 2 REHEAT COIL OUTLET WATER NODE,Water,1
 Node,110,BUILDING STORY 1 THERMALZONE 3 REHEAT COIL INLET WATER NODE,Water,1
 Node,111,BUILDING STORY 1 THERMALZONE 3 REHEAT COIL OUTLET WATER NODE,Water,1
 Node,112,BUILDING STORY 1 THERMALZONE 4 REHEAT COIL INLET WATER NODE,Water,1
 Node,113,BUILDING STORY 1 THERMALZONE 4 REHEAT COIL OUTLET WATER NODE,Water,1
 Node,114,5 ZONE VAV 1 MAIN HTG COIL INLET WATER NODE,Water,2
 Node,115,5 ZONE VAV 1 MAIN HTG COIL OUTLET WATER NODE,Water,1
 Node,116,BUILDING STORY 2 THERMALZONE REHEAT COIL INLET WATER NODE,Water,1
 Node,117,BUILDING STORY 2 THERMALZONE REHEAT COIL OUTLET WATER NODE,Water,1
 Node,118,BUILDING STORY 2 THERMALZONE 1 REHEAT COIL INLET WATER NODE,Water,1
 Node,119,BUILDING STORY 2 THERMALZONE 1 REHEAT COIL OUTLET WATER NODE,Water,1
 Node,120,BUILDING STORY 2 THERMALZONE 2 REHEAT COIL INLET WATER NODE,Water,1
 Node,121,BUILDING STORY 2 THERMALZONE 2 REHEAT COIL OUTLET WATER NODE,Water,1
 Node,122,BUILDING STORY 2 THERMALZONE 4 REHEAT COIL INLET WATER NODE,Water,1
 Node,123,BUILDING STORY 2 THERMALZONE 4 REHEAT COIL OUTLET WATER NODE,Water,1
 Node,124,BUILDING STORY 2 THERMALZONE 3 REHEAT COIL INLET WATER NODE,Water,1
 Node,125,BUILDING STORY 2 THERMALZONE 3 REHEAT COIL OUTLET WATER NODE,Water,1
 Node,126,5 ZONE VAV 2 MAIN HTG COIL INLET WATER NODE,Water,2
 Node,127,5 ZONE VAV 2 MAIN HTG COIL OUTLET WATER NODE,Water,1
 Node,128,BUILDING STORY 3 THERMALZONE REHEAT COIL INLET WATER NODE,Water,1
 Node,129,BUILDING STORY 3 THERMALZONE REHEAT COIL OUTLET WATER NODE,Water,1
 Node,130,BUILDING STORY 3 THERMALZONE 1 REHEAT COIL INLET WATER NODE,Water,1
 Node,131,BUILDING STORY 3 THERMALZONE 1 REHEAT COIL OUTLET WATER NODE,Water,1
 Node,132,BUILDING STORY 3 THERMALZONE 2 REHEAT COIL INLET WATER NODE,Water,1
 Node,133,BUILDING STORY 3 THERMALZONE 2 REHEAT COIL OUTLET WATER NODE,Water,1
 Node,134,BUILDING STORY 3 THERMALZONE 3 REHEAT COIL INLET WATER NODE,Water,1
 Node,135,BUILDING STORY 3 THERMALZONE 3 REHEAT COIL OUTLET WATER NODE,Water,1
 Node,136,BUILDING STORY 3 THERMALZONE 4 REHEAT COIL INLET WATER NODE,Water,1
 Node,137,BUILDING STORY 3 THERMALZONE 4 REHEAT COIL OUTLET WATER NODE,Water,1
 Node,138,HOT WATER LOOP DEMAND BYPASS PIPE INLET NODE,Water,1
 Node,139,HOT WATER LOOP DEMAND BYPASS PIPE OUTLET NODE,Water,1
 Node,140,HOT WATER LOOP DEMAND OUTLET INLET WATER NODE,Water,1
 Node,141,HOT WATER LOOP DEMAND OUTLET NODE,Water,2
 Node,142,STRIPMALL STRIP MALL - TYPE 1 - 90.1-2013 SERVICE WATER LOOP SUPPLY INLET NODE,Water,2
 Node,143,STRIPMALL STRIP MALL - TYPE 1 - 90.1-2013 SERVICE WATER LOOP WATER MAINS PRESSURE DRIVEN OUTLET WATER NODE,Water,1
 Node,144,42X 50GAL NATURALGAS WATER HEATER - 20KBTU/HR SUPPLY INLET WATER NODE,Water,1
 Node,145,42X 50GAL NATURALGAS WATER HEATER - 20KBTU/HR SUPPLY OUTLET WATER NODE,Water,1
 Node,146,PIPE ADIABATIC 1 INLET WATER NODE,Water,1
 Node,147,PIPE ADIABATIC 1 OUTLET WATER NODE,Water,1
 Node,148,PIPE ADIABATIC 3 INLET WATER NODE,Water,1
 Node,149,STRIPMALL STRIP MALL - TYPE 1 - 90.1-2013 SERVICE WATER LOOP SUPPLY OUTLET NODE,Water,4
 Node,150,STRIPMALL STRIP MALL - TYPE 1 - 90.1-2013 SERVICE WATER LOOP DEMAND INLET NODE,Water,2
 Node,151,STRIPMALL STRIP MALL - TYPE 1 - 90.1-2013 SERVICE WATER LOOP PIPE 840.0FT OUTLET WATER NODE,Water,1
 Node,152,PIPE ADIABATIC 2 INLET WATER NODE,Water,1
 Node,153,PIPE ADIABATIC 2 OUTLET WATER NODE,Water,1
 Node,154,STRIPMALL STRIP MALL - TYPE 1 - 90.1-2013 42 UNITS WUC 1.26GPM AT 140F INLET WATER NODE,Water,1
 Node,155,STRIPMALL STRIP MALL - TYPE 1 - 90.1-2013 42 UNITS WUC 1.26GPM AT 140F OUTLET WATER NODE,Water,1
 Node,156,STRIPMALL STRIP MALL - TYPE 1 - 90.1-2013 SERVICE WATER LOOP DEMAND BYPASS PIPE INLET NODE,Water,1
 Node,157,STRIPMALL STRIP MALL - TYPE 1 - 90.1-2013 SERVICE WATER LOOP DEMAND BYPASS PIPE OUTLET NODE,Water,1
 Node,158,PIPE ADIABATIC 4 INLET WATER NODE,Water,1
 Node,159,STRIPMALL STRIP MALL - TYPE 1 - 90.1-2013 SERVICE WATER LOOP DEMAND OUTLET NODE,Water,2
 Node,160,STRIPMALL STRIP MALL - TYPE 2 - 90.1-2013 SERVICE WATER LOOP SUPPLY INLET NODE,Water,2
 Node,161,STRIPMALL STRIP MALL - TYPE 2 - 90.1-2013 SERVICE WATER LOOP WATER MAINS PRESSURE DRIVEN OUTLET WATER NODE,Water,1
 Node,162,42X 50GAL NATURALGAS WATER HEATER - 20KBTU/HR 1 SUPPLY INLET WATER NODE,Water,1
 Node,163,42X 50GAL NATURALGAS WATER HEATER - 20KBTU/HR 1 SUPPLY OUTLET WATER NODE,Water,1
 Node,164,PIPE ADIABATIC 5 INLET WATER NODE,Water,1
 Node,165,PIPE ADIABATIC 5 OUTLET WATER NODE,Water,1
 Node,166,PIPE ADIABATIC 7 INLET WATER NODE,Water,1
 Node,167,STRIPMALL STRIP MALL - TYPE 2 - 90.1-2013 SERVICE WATER LOOP SUPPLY OUTLET NODE,Water,4
 Node,168,STRIPMALL STRIP MALL - TYPE 2 - 90.1-2013 SERVICE WATER LOOP DEMAND INLET NODE,Water,2
 Node,169,STRIPMALL STRIP MALL - TYPE 2 - 90.1-2013 SERVICE WATER LOOP PIPE 840.0FT OUTLET WATER NODE,Water,1
 Node,170,PIPE ADIABATIC 6 INLET WATER NODE,Water,1
 Node,171,PIPE ADIABATIC 6 OUTLET WATER NODE,Water,1
 Node,172,STRIPMALL STRIP MALL - TYPE 2 - 90.1-2013 42 UNITS WUC 1.26GPM AT 140F INLET WATER NODE,Water,1
 Node,173,STRIPMALL STRIP MALL - TYPE 2 - 90.1-2013 42 UNITS WUC 1.26GPM AT 140F OUTLET WATER NODE,Water,1
 Node,174,STRIPMALL STRIP MALL - TYPE 2 - 90.1-2013 SERVICE WATER LOOP DEMAND BYPASS PIPE INLET NODE,Water,1
 Node,175,STRIPMALL STRIP MALL - TYPE 2 - 90.1-2013 SERVICE WATER LOOP DEMAND BYPASS PIPE OUTLET NODE,Water,1
 Node,176,PIPE ADIABATIC 8 INLET WATER NODE,Water,1
 Node,177,STRIPMALL STRIP MALL - TYPE 2 - 90.1-2013 SERVICE WATER LOOP DEMAND OUTLET NODE,Water,2
 Node,178,STRIPMALL STRIP MALL - TYPE 3 - 90.1-2013 SERVICE WATER LOOP SUPPLY INLET NODE,Water,2
 Node,179,STRIPMALL STRIP MALL - TYPE 3 - 90.1-2013 SERVICE WATER LOOP WATER MAINS PRESSURE DRIVEN OUTLET WATER NODE,Water,1
 Node,180,83X 50GAL NATURALGAS WATER HEATER - 20KBTU/HR SUPPLY INLET WATER NODE,Water,1
 Node,181,83X 50GAL NATURALGAS WATER HEATER - 20KBTU/HR SUPPLY OUTLET WATER NODE,Water,1
 Node,182,PIPE ADIABATIC 9 INLET WATER NODE,Water,1
 Node,183,PIPE ADIABATIC 9 OUTLET WATER NODE,Water,1
 Node,184,PIPE ADIABATIC 11 INLET WATER NODE,Water,1
 Node,185,STRIPMALL STRIP MALL - TYPE 3 - 90.1-2013 SERVICE WATER LOOP SUPPLY OUTLET NODE,Water,4
 Node,186,STRIPMALL STRIP MALL - TYPE 3 - 90.1-2013 SERVICE WATER LOOP DEMAND INLET NODE,Water,2
 Node,187,STRIPMALL STRIP MALL - TYPE 3 - 90.1-2013 SERVICE WATER LOOP PIPE 1660.0FT OUTLET WATER NODE,Water,1
 Node,188,PIPE ADIABATIC 10 INLET WATER NODE,Water,1
 Node,189,PIPE ADIABATIC 10 OUTLET WATER NODE,Water,1
 Node,190,STRIPMALL STRIP MALL - TYPE 3 - 90.1-2013 83 UNITS WUC 2.49GPM AT 140F INLET WATER NODE,Water,1
 Node,191,STRIPMALL STRIP MALL - TYPE 3 - 90.1-2013 83 UNITS WUC 2.49GPM AT 140F OUTLET WATER NODE,Water,1
 Node,192,STRIPMALL STRIP MALL - TYPE 3 - 90.1-2013 SERVICE WATER LOOP DEMAND BYPASS PIPE INLET NODE,Water,1
 Node,193,STRIPMALL STRIP MALL - TYPE 3 - 90.1-2013 SERVICE WATER LOOP DEMAND BYPASS PIPE OUTLET NODE,Water,1
 Node,194,PIPE ADIABATIC 12 INLET WATER NODE,Water,1
 Node,195,STRIPMALL STRIP MALL - TYPE 3 - 90.1-2013 SERVICE WATER LOOP DEMAND OUTLET NODE,Water,2
 Node,196,BUILDING STORY 1 THERMALZONE ZONE AIR NODE,Air,0
 Node,197,BUILDING STORY 1 THERMALZONE 1 ZONE AIR NODE,Air,0
 Node,198,BUILDING STORY 1 THERMALZONE 2 ZONE AIR NODE,Air,0
 Node,199,BUILDING STORY 1 THERMALZONE 3 ZONE AIR NODE,Air,0
 Node,200,BUILDING STORY 1 THERMALZONE 4 ZONE AIR NODE,Air,0
 Node,201,BUILDING STORY 2 THERMALZONE ZONE AIR NODE,Air,0
 Node,202,BUILDING STORY 2 THERMALZONE 1 ZONE AIR NODE,Air,0
 Node,203,BUILDING STORY 2 THERMALZONE 2 ZONE AIR NODE,Air,0
 Node,204,BUILDING STORY 2 THERMALZONE 3 ZONE AIR NODE,Air,0
 Node,205,BUILDING STORY 2 THERMALZONE 4 ZONE AIR NODE,Air,0
 Node,206,BUILDING STORY 3 THERMALZONE ZONE AIR NODE,Air,0
 Node,207,BUILDING STORY 3 THERMALZONE 1 ZONE AIR NODE,Air,0
 Node,208,BUILDING STORY 3 THERMALZONE 2 ZONE AIR NODE,Air,0
 Node,209,BUILDING STORY 3 THERMALZONE 3 ZONE AIR NODE,Air,0
 Node,210,BUILDING STORY 3 THERMALZONE 4 ZONE AIR NODE,Air,0
 Node,211,5 ZONE VAV DEMAND OUTLET NODE,Air,2
 Node,212,5 ZONE VAV 1 DEMAND OUTLET NODE,Air,2
 Node,213,5 ZONE VAV 2 DEMAND OUTLET NODE,Air,2
 Node,214,5 ZONE VAV OUTDOOR AIR NODE,Air,3
 Node,215,5 ZONE VAV 1 OUTDOOR AIR NODE,Air,3
 Node,216,5 ZONE VAV 2 OUTDOOR AIR NODE,Air,3
 Node,217,MODEL OUTDOOR AIR NODE,Air,0
 Node,218,NODE 2,Air,2
 Node,219,NODE 4,Air,2
 Node,220,NODE 6,Air,2
 Node,221,BUILDING STORY 1 THERMALZONE VAV TERMINAL INLET AIR NODE,Air,1
 Node,222,BUILDING STORY 1 THERMALZONE 1 VAV TERMINAL INLET AIR NODE,Air,1
 Node,223,BUILDING STORY 1 THERMALZONE 2 VAV TERMINAL INLET AIR NODE,Air,1
 Node,224,BUILDING STORY 1 THERMALZONE 3 VAV TERMINAL INLET AIR NODE,Air,1
 Node,225,BUILDING STORY 1 THERMALZONE 4 VAV TERMINAL INLET AIR NODE,Air,1
 Node,226,BUILDING STORY 2 THERMALZONE VAV TERMINAL INLET AIR NODE,Air,1
 Node,227,BUILDING STORY 2 THERMALZONE 1 VAV TERMINAL INLET AIR NODE,Air,1
 Node,228,BUILDING STORY 2 THERMALZONE 2 VAV TERMINAL INLET AIR NODE,Air,1
 Node,229,BUILDING STORY 2 THERMALZONE 4 VAV TERMINAL INLET AIR NODE,Air,1
 Node,230,BUILDING STORY 2 THERMALZONE 3 VAV TERMINAL INLET AIR NODE,Air,1
 Node,231,BUILDING STORY 3 THERMALZONE VAV TERMINAL INLET AIR NODE,Air,1
 Node,232,BUILDING STORY 3 THERMALZONE 1 VAV TERMINAL INLET AIR NODE,Air,1
 Node,233,BUILDING STORY 3 THERMALZONE 2 VAV TERMINAL INLET AIR NODE,Air,1
 Node,234,BUILDING STORY 3 THERMALZONE 3 VAV TERMINAL INLET AIR NODE,Air,1
 Node,235,BUILDING STORY 3 THERMALZONE 4 VAV TERMINAL INLET AIR NODE,Air,1
 Node,236,BUILDING STORY 1 THERMALZONE VAV TERMINAL DAMPER OUTLET,Air,1
 Node,237,BUILDING STORY 1 THERMALZONE 1 VAV TERMINAL DAMPER OUTLET,Air,1
 Node,238,BUILDING STORY 1 THERMALZONE 2 VAV TERMINAL DAMPER OUTLET,Air,1
 Node,239,BUILDING STORY 1 THERMALZONE 3 VAV TERMINAL DAMPER OUTLET,Air,1
 Node,240,BUILDING STORY 1 THERMALZONE 4 VAV TERMINAL DAMPER OUTLET,Air,1
 Node,241,BUILDING STORY 2 THERMALZONE VAV TERMINAL DAMPER OUTLET,Air,1
 Node,242,BUILDING STORY 2 THERMALZONE 1 VAV TERMINAL DAMPER OUTLET,Air,1
 Node,243,BUILDING STORY 2 THERMALZONE 2 VAV TERMINAL DAMPER OUTLET,Air,1
 Node,244,BUILDING STORY 2 THERMALZONE 3 VAV TERMINAL DAMPER OUTLET,Air,1
 Node,245,BUILDING STORY 2 THERMALZONE 4 VAV TERMINAL DAMPER OUTLET,Air,1
 Node,246,BUILDING STORY 3 THERMALZONE VAV TERMINAL DAMPER OUTLET,Air,1
 Node,247,BUILDING STORY 3 THERMALZONE 1 VAV TERMINAL DAMPER OUTLET,Air,1
 Node,248,BUILDING STORY 3 THERMALZONE 2 VAV TERMINAL DAMPER OUTLET,Air,1
 Node,249,BUILDING STORY 3 THERMALZONE 3 VAV TERMINAL DAMPER OUTLET,Air,1
 Node,250,BUILDING STORY 3 THERMALZONE 4 VAV TERMINAL DAMPER OUTLET,Air,1
 Node,251,NODE 3,Air,2
 Node,252,NODE 5,Air,2
 Node,253,NODE 7,Air,2
 Node,254,5 ZONE VAV RELIEF AIR NODE,Air,0
 Node,255,5 ZONE VAV 1 RELIEF AIR NODE,Air,0
 Node,256,5 ZONE VAV 2 RELIEF AIR NODE,Air,0
! ===============================================================
! Suspicious nodes have 0 references.  It is normal for some nodes, however.
! Listing nodes with 0 references (culled from previous list):
! <Suspicious Node>,<NodeNumber>,<Node Name>,<Node Fluid Type>,<# Times Node Referenced After Definition>
 Suspicious Node,196,BUILDING STORY 1 THERMALZONE ZONE AIR NODE,Air,0
 Suspicious Node,197,BUILDING STORY 1 THERMALZONE 1 ZONE AIR NODE,Air,0
 Suspicious Node,198,BUILDING STORY 1 THERMALZONE 2 ZONE AIR NODE,Air,0
 Suspicious Node,199,BUILDING STORY 1 THERMALZONE 3 ZONE AIR NODE,Air,0
 Suspicious Node,200,BUILDING STORY 1 THERMALZONE 4 ZONE AIR NODE,Air,0
 Suspicious Node,201,BUILDING STORY 2 THERMALZONE ZONE AIR NODE,Air,0
 Suspicious Node,202,BUILDING STORY 2 THERMALZONE 1 ZONE AIR NODE,Air,0
 Suspicious Node,203,BUILDING STORY 2 THERMALZONE 2 ZONE AIR NODE,Air,0
 Suspicious Node,204,BUILDING STORY 2 THERMALZONE 3 ZONE AIR NODE,Air,0
 Suspicious Node,205,BUILDING STORY 2 THERMALZONE 4 ZONE AIR NODE,Air,0
 Suspicious Node,206,BUILDING STORY 3 THERMALZONE ZONE AIR NODE,Air,0
 Suspicious Node,207,BUILDING STORY 3 THERMALZONE 1 ZONE AIR NODE,Air,0
 Suspicious Node,208,BUILDING STORY 3 THERMALZONE 2 ZONE AIR NODE,Air,0
 Suspicious Node,209,BUILDING STORY 3 THERMALZONE 3 ZONE AIR NODE,Air,0
 Suspicious Node,210,BUILDING STORY 3 THERMALZONE 4 ZONE AIR NODE,Air,0
 Suspicious Node,217,MODEL OUTDOOR AIR NODE,Air,0
 Suspicious Node,254,5 ZONE VAV RELIEF AIR NODE,Air,0
 Suspicious Node,255,5 ZONE VAV 1 RELIEF AIR NODE,Air,0
 Suspicious Node,256,5 ZONE VAV 2 RELIEF AIR NODE,Air,0
! ===============================================================
! <#Branch Lists>,<Number of Branch Lists>
 #Branch Lists,15
! <Branch List>,<Branch List Count>,<Branch List Name>,<Loop Name>,<Loop Type>,<Number of Branches>
! <Branch>,<Branch Count>,<Branch Name>,<Loop Name>,<Loop Type>,<Branch Inlet Node Name>,<Branch Outlet Node Name>
 Branch List,1,5 ZONE VAV SUPPLY BRANCHES,5 ZONE VAV,Air,1
   Branch,1,5 ZONE VAV MAIN BRANCH,5 ZONE VAV,Air,5 ZONE VAV SUPPLY INLET NODE,5 ZONE VAV SUPPLY OUTLET NODE
 Branch List,2,5 ZONE VAV 1 SUPPLY BRANCHES,5 ZONE VAV 1,Air,1
   Branch,1,5 ZONE VAV 1 MAIN BRANCH,5 ZONE VAV 1,Air,5 ZONE VAV 1 SUPPLY INLET NODE,5 ZONE VAV 1 SUPPLY OUTLET NODE
 Branch List,3,5 ZONE VAV 2 SUPPLY BRANCHES,5 ZONE VAV 2,Air,1
   Branch,1,5 ZONE VAV 2 MAIN BRANCH,5 ZONE VAV 2,Air,5 ZONE VAV 2 SUPPLY INLET NODE,5 ZONE VAV 2 SUPPLY OUTLET NODE
 Branch List,4,CHILLED WATER LOOP SUPPLY BRANCHES,CHILLED WATER LOOP,Plant Supply,4
   Branch,1,CHILLED WATER LOOP SUPPLY INLET BRANCH,CHILLED WATER LOOP,Plant Supply,CHILLED WATER LOOP SUPPLY INLET NODE,CHILLED WATER LOOP PRIMARY PUMP OUTLET WATER NODE
   Branch,2,CHILLED WATER LOOP SUPPLY BRANCH 1,CHILLED WATER LOOP,Plant Supply,90.1-2013 WATERCOOLED  ROTARY SCREW CHILLER 0 SUPPLY INLET WATER NODE,90.1-2013 WATERCOOLED  ROTARY SCREW CHILLER 0 SUPPLY OUTLET WATER NODE
   Branch,3,CHILLED WATER LOOP SUPPLY BRANCH 2,CHILLED WATER LOOP,Plant Supply,CHILLED WATER LOOP CHILLER BYPASS INLET WATER NODE,CHILLED WATER LOOP CHILLER BYPASS OUTLET WATER NODE
   Branch,4,CHILLED WATER LOOP SUPPLY OUTLET BRANCH,CHILLED WATER LOOP,Plant Supply,CHILLED WATER LOOP SUPPLY OUTLET INLET WATER NODE,CHILLED WATER LOOP SUPPLY OUTLET NODE
 Branch List,5,CHILLED WATER LOOP DEMAND BRANCHES,CHILLED WATER LOOP,Plant Demand,7
   Branch,1,CHILLED WATER LOOP DEMAND INLET BRANCH,CHILLED WATER LOOP,Plant Demand,CHILLED WATER LOOP DEMAND INLET NODE,CHILLED WATER LOOP SECONDARY PUMP OUTLET WATER NODE
   Branch,2,CHILLED WATER LOOP DEMAND BRANCH 1,CHILLED WATER LOOP,Plant Demand,CHILLED WATER LOOP COIL BYPASS INLET WATER NODE,CHILLED WATER LOOP COIL BYPASS OUTLET WATER NODE
   Branch,3,CHILLED WATER LOOP DEMAND BRANCH 2,CHILLED WATER LOOP,Plant Demand,5 ZONE VAV CLG COIL INLET WATER NODE,5 ZONE VAV CLG COIL OUTLET WATER NODE
   Branch,4,CHILLED WATER LOOP DEMAND BRANCH 3,CHILLED WATER LOOP,Plant Demand,5 ZONE VAV 1 CLG COIL INLET WATER NODE,5 ZONE VAV 1 CLG COIL OUTLET WATER NODE
   Branch,5,CHILLED WATER LOOP DEMAND BRANCH 4,CHILLED WATER LOOP,Plant Demand,5 ZONE VAV 2 CLG COIL INLET WATER NODE,5 ZONE VAV 2 CLG COIL OUTLET WATER NODE
   Branch,6,CHILLED WATER LOOP DEMAND BYPASS BRANCH,CHILLED WATER LOOP,Plant Demand,CHILLED WATER LOOP DEMAND BYPASS PIPE INLET NODE,CHILLED WATER LOOP DEMAND BYPASS PIPE OUTLET NODE
   Branch,7,CHILLED WATER LOOP DEMAND OUTLET BRANCH,CHILLED WATER LOOP,Plant Demand,CHILLED WATER LOOP DEMAND OUTLET INLET WATER NODE,CHILLED WATER LOOP DEMAND OUTLET NODE
 Branch List,6,CONDENSER WATER LOOP SUPPLY BRANCHES,CONDENSER WATER LOOP,Plant Supply,4
   Branch,1,CONDENSER WATER LOOP SUPPLY INLET BRANCH,CONDENSER WATER LOOP,Plant Supply,CONDENSER WATER LOOP SUPPLY INLET NODE,CONDENSER WATER LOOP CONSTANT PUMP OUTLET WATER NODE
   Branch,2,CONDENSER WATER LOOP SUPPLY BRANCH 1,CONDENSER WATER LOOP,Plant Supply,PROPELLER OR AXIAL VARIABLE SPEED FAN OPEN COOLING TOWER INLET WATER NODE,PROPELLER OR AXIAL VARIABLE SPEED FAN OPEN COOLING TOWER OUTLET WATER NODE
   Branch,3,CONDENSER WATER LOOP SUPPLY BRANCH 2,CONDENSER WATER LOOP,Plant Supply,CONDENSER WATER LOOP COOLING TOWER BYPASS INLET WATER NODE,CONDENSER WATER LOOP COOLING TOWER BYPASS OUTLET WATER NODE
   Branch,4,CONDENSER WATER LOOP SUPPLY OUTLET BRANCH,CONDENSER WATER LOOP,Plant Supply,CONDENSER WATER LOOP SUPPLY OUTLET INLET WATER NODE,CONDENSER WATER LOOP SUPPLY OUTLET NODE
 Branch List,7,CONDENSER WATER LOOP DEMAND BRANCHES,CONDENSER WATER LOOP,Plant Demand,5
   Branch,1,CONDENSER WATER LOOP DEMAND INLET BRANCH,CONDENSER WATER LOOP,Plant Demand,CONDENSER WATER LOOP DEMAND INLET NODE,CONDENSER WATER LOOP DEMAND INLET OUTLET WATER NODE
   Branch,2,CONDENSER WATER LOOP DEMAND BRANCH 1,CONDENSER WATER LOOP,Plant Demand,CONDENSER WATER LOOP CHILLER BYPASS INLET WATER NODE,CONDENSER WATER LOOP CHILLER BYPASS OUTLET WATER NODE
   Branch,3,CONDENSER WATER LOOP DEMAND BRANCH 2,CONDENSER WATER LOOP,Plant Demand,90.1-2013 WATERCOOLED  ROTARY SCREW CHILLER 0 DEMAND INLET WATER NODE,90.1-2013 WATERCOOLED  ROTARY SCREW CHILLER 0 DEMAND OUTLET WATER NODE
   Branch,4,CONDENSER WATER LOOP DEMAND BYPASS BRANCH,CONDENSER WATER LOOP,Plant Demand,CONDENSER WATER LOOP DEMAND BYPASS PIPE INLET NODE,CONDENSER WATER LOOP DEMAND BYPASS PIPE OUTLET NODE
   Branch,5,CONDENSER WATER LOOP DEMAND OUTLET BRANCH,CONDENSER WATER LOOP,Plant Demand,CONDENSER WATER LOOP DEMAND OUTLET INLET WATER NODE,CONDENSER WATER LOOP DEMAND OUTLET NODE
 Branch List,8,HOT WATER LOOP SUPPLY BRANCHES,HOT WATER LOOP,Plant Supply,4
   Branch,1,HOT WATER LOOP SUPPLY INLET BRANCH,HOT WATER LOOP,Plant Supply,HOT WATER LOOP SUPPLY INLET NODE,HOT WATER LOOP PUMP OUTLET WATER NODE
   Branch,2,HOT WATER LOOP SUPPLY BRANCH 1,HOT WATER LOOP,Plant Supply,BOILER INLET WATER NODE,BOILER OUTLET WATER NODE
   Branch,3,HOT WATER LOOP SUPPLY BRANCH 2,HOT WATER LOOP,Plant Supply,HOT WATER LOOP SUPPLY EQUIPMENT BYPASS INLET WATER NODE,HOT WATER LOOP SUPPLY EQUIPMENT BYPASS OUTLET WATER NODE
   Branch,4,HOT WATER LOOP SUPPLY OUTLET BRANCH,HOT WATER LOOP,Plant Supply,HOT WATER LOOP SUPPLY OUTLET INLET WATER NODE,HOT WATER LOOP SUPPLY OUTLET NODE
 Branch List,9,HOT WATER LOOP DEMAND BRANCHES,HOT WATER LOOP,Plant Demand,22
   Branch,1,HOT WATER LOOP DEMAND INLET BRANCH,HOT WATER LOOP,Plant Demand,HOT WATER LOOP DEMAND INLET NODE,HOT WATER LOOP DEMAND INLET OUTLET WATER NODE
   Branch,2,HOT WATER LOOP DEMAND BRANCH 1,HOT WATER LOOP,Plant Demand,HOT WATER LOOP COIL BYPASS INLET WATER NODE,HOT WATER LOOP COIL BYPASS OUTLET WATER NODE
   Branch,3,HOT WATER LOOP DEMAND BRANCH 2,HOT WATER LOOP,Plant Demand,5 ZONE VAV MAIN HTG COIL INLET WATER NODE,5 ZONE VAV MAIN HTG COIL OUTLET WATER NODE
   Branch,4,HOT WATER LOOP DEMAND BRANCH 3,HOT WATER LOOP,Plant Demand,BUILDING STORY 1 THERMALZONE REHEAT COIL INLET WATER NODE,BUILDING STORY 1 THERMALZONE REHEAT COIL OUTLET WATER NODE
   Branch,5,HOT WATER LOOP DEMAND BRANCH 4,HOT WATER LOOP,Plant Demand,BUILDING STORY 1 THERMALZONE 1 REHEAT COIL INLET WATER NODE,BUILDING STORY 1 THERMALZONE 1 REHEAT COIL OUTLET WATER NODE
   Branch,6,HOT WATER LOOP DEMAND BRANCH 5,HOT WATER LOOP,Plant Demand,BUILDING STORY 1 THERMALZONE 2 REHEAT COIL INLET WATER NODE,BUILDING STORY 1 THERMALZONE 2 REHEAT COIL OUTLET WATER NODE
   Branch,7,HOT WATER LOOP DEMAND BRANCH 6,HOT WATER LOOP,Plant Demand,BUILDING STORY 1 THERMALZONE 3 REHEAT COIL INLET WATER NODE,BUILDING STORY 1 THERMALZONE 3 REHEAT COIL OUTLET WATER NODE
   Branch,8,HOT WATER LOOP DEMAND BRANCH 7,HOT WATER LOOP,Plant Demand,BUILDING STORY 1 THERMALZONE 4 REHEAT COIL INLET WATER NODE,BUILDING STORY 1 THERMALZONE 4 REHEAT COIL OUTLET WATER NODE
   Branch,9,HOT WATER LOOP DEMAND BRANCH 8,HOT WATER LOOP,Plant Demand,5 ZONE VAV 1 MAIN HTG COIL INLET WATER NODE,5 ZONE VAV 1 MAIN HTG COIL OUTLET WATER NODE
   Branch,10,HOT WATER LOOP DEMAND BRANCH 9,HOT WATER LOOP,Plant Demand,BUILDING STORY 2 THERMALZONE REHEAT COIL INLET WATER NODE,BUILDING STORY 2 THERMALZONE REHEAT COIL OUTLET WATER NODE
   Branch,11,HOT WATER LOOP DEMAND BRANCH 10,HOT WATER LOOP,Plant Demand,BUILDING STORY 2 THERMALZONE 1 REHEAT COIL INLET WATER NODE,BUILDING STORY 2 THERMALZONE 1 REHEAT COIL OUTLET WATER NODE
   Branch,12,HOT WATER LOOP DEMAND BRANCH 11,HOT WATER LOOP,Plant Demand,BUILDING STORY 2 THERMALZONE 2 REHEAT COIL INLET WATER NODE,BUILDING STORY 2 THERMALZONE 2 REHEAT COIL OUTLET WATER NODE
   Branch,13,HOT WATER LOOP DEMAND BRANCH 12,HOT WATER LOOP,Plant Demand,BUILDING STORY 2 THERMALZONE 4 REHEAT COIL INLET WATER NODE,BUILDING STORY 2 THERMALZONE 4 REHEAT COIL OUTLET WATER NODE
   Branch,14,HOT WATER LOOP DEMAND BRANCH 13,HOT WATER LOOP,Plant Demand,BUILDING STORY 2 THERMALZONE 3 REHEAT COIL INLET WATER NODE,BUILDING STORY 2 THERMALZONE 3 REHEAT COIL OUTLET WATER NODE
   Branch,15,HOT WATER LOOP DEMAND BRANCH 14,HOT WATER LOOP,Plant Demand,5 ZONE VAV 2 MAIN HTG COIL INLET WATER NODE,5 ZONE VAV 2 MAIN HTG COIL OUTLET WATER NODE
   Branch,16,HOT WATER LOOP DEMAND BRANCH 15,HOT WATER LOOP,Plant Demand,BUILDING STORY 3 THERMALZONE REHEAT COIL INLET WATER NODE,BUILDING STORY 3 THERMALZONE REHEAT COIL OUTLET WATER NODE
   Branch,17,HOT WATER LOOP DEMAND BRANCH 16,HOT WATER LOOP,Plant Demand,BUILDING STORY 3 THERMALZONE 1 REHEAT COIL INLET WATER NODE,BUILDING STORY 3 THERMALZONE 1 REHEAT COIL OUTLET WATER NODE
   Branch,18,HOT WATER LOOP DEMAND BRANCH 17,HOT WATER LOOP,Plant Demand,BUILDING STORY 3 THERMALZONE 2 REHEAT COIL INLET WATER NODE,BUILDING STORY 3 THERMALZONE 2 REHEAT COIL OUTLET WATER NODE
   Branch,19,HOT WATER LOOP DEMAND BRANCH 18,HOT WATER LOOP,Plant Demand,BUILDING STORY 3 THERMALZONE 3 REHEAT COIL INLET WATER NODE,BUILDING STORY 3 THERMALZONE 3 REHEAT COIL OUTLET WATER NODE
   Branch,20,HOT WATER LOOP DEMAND BRANCH 19,HOT WATER LOOP,Plant Demand,BUILDING STORY 3 THERMALZONE 4 REHEAT COIL INLET WATER NODE,BUILDING STORY 3 THERMALZONE 4 REHEAT COIL OUTLET WATER NODE
   Branch,21,HOT WATER LOOP DEMAND BYPASS BRANCH,HOT WATER LOOP,Plant Demand,HOT WATER LOOP DEMAND BYPASS PIPE INLET NODE,HOT WATER LOOP DEMAND BYPASS PIPE OUTLET NODE
   Branch,22,HOT WATER LOOP DEMAND OUTLET BRANCH,HOT WATER LOOP,Plant Demand,HOT WATER LOOP DEMAND OUTLET INLET WATER NODE,HOT WATER LOOP DEMAND OUTLET NODE
 Branch List,10,STRIPMALL STRIP MALL - TYPE 1 - 90.1-2013 SERVICE WATER LOOP SUPPLY BRANCHES,STRIPMALL STRIP MALL - TYPE 1 - 90.1-2013 SERVICE WATER LOOP,Plant Supply,4
   Branch,1,STRIPMALL STRIP MALL - TYPE 1 - 90.1-2013 SERVICE WATER LOOP SUPPLY INLET BRANCH,STRIPMALL STRIP MALL - TYPE 1 - 90.1-2013 SERVICE WATER LOOP,Plant Supply,STRIPMALL STRIP MALL - TYPE 1 - 90.1-2013 SERVICE WATER LOOP SUPPLY INLET NODE,STRIPMALL STRIP MALL - TYPE 1 - 90.1-2013 SERVICE WATER LOOP WATER MAINS PRESSURE DRIVEN OUTLET WATER NODE
   Branch,2,STRIPMALL STRIP MALL - TYPE 1 - 90.1-2013 SERVICE WATER LOOP SUPPLY BRANCH 1,STRIPMALL STRIP MALL - TYPE 1 - 90.1-2013 SERVICE WATER LOOP,Plant Supply,42X 50GAL NATURALGAS WATER HEATER - 20KBTU/HR SUPPLY INLET WATER NODE,42X 50GAL NATURALGAS WATER HEATER - 20KBTU/HR SUPPLY OUTLET WATER NODE
   Branch,3,STRIPMALL STRIP MALL - TYPE 1 - 90.1-2013 SERVICE WATER LOOP SUPPLY BRANCH 2,STRIPMALL STRIP MALL - TYPE 1 - 90.1-2013 SERVICE WATER LOOP,Plant Supply,PIPE ADIABATIC 1 INLET WATER NODE,PIPE ADIABATIC 1 OUTLET WATER NODE
   Branch,4,STRIPMALL STRIP MALL - TYPE 1 - 90.1-2013 SERVICE WATER LOOP SUPPLY OUTLET BRANCH,STRIPMALL STRIP MALL - TYPE 1 - 90.1-2013 SERVICE WATER LOOP,Plant Supply,PIPE ADIABATIC 3 INLET WATER NODE,STRIPMALL STRIP MALL - TYPE 1 - 90.1-2013 SERVICE WATER LOOP SUPPLY OUTLET NODE
 Branch List,11,STRIPMALL STRIP MALL - TYPE 1 - 90.1-2013 SERVICE WATER LOOP DEMAND BRANCHES,STRIPMALL STRIP MALL - TYPE 1 - 90.1-2013 SERVICE WATER LOOP,Plant Demand,5
   Branch,1,STRIPMALL STRIP MALL - TYPE 1 - 90.1-2013 SERVICE WATER LOOP DEMAND INLET BRANCH,STRIPMALL STRIP MALL - TYPE 1 - 90.1-2013 SERVICE WATER LOOP,Plant Demand,STRIPMALL STRIP MALL - TYPE 1 - 90.1-2013 SERVICE WATER LOOP DEMAND INLET NODE,STRIPMALL STRIP MALL - TYPE 1 - 90.1-2013 SERVICE WATER LOOP PIPE 840.0FT OUTLET WATER NODE
   Branch,2,STRIPMALL STRIP MALL - TYPE 1 - 90.1-2013 SERVICE WATER LOOP DEMAND BRANCH 1,STRIPMALL STRIP MALL - TYPE 1 - 90.1-2013 SERVICE WATER LOOP,Plant Demand,PIPE ADIABATIC 2 INLET WATER NODE,PIPE ADIABATIC 2 OUTLET WATER NODE
   Branch,3,STRIPMALL STRIP MALL - TYPE 1 - 90.1-2013 SERVICE WATER LOOP DEMAND BRANCH 2,STRIPMALL STRIP MALL - TYPE 1 - 90.1-2013 SERVICE WATER LOOP,Plant Demand,STRIPMALL STRIP MALL - TYPE 1 - 90.1-2013 42 UNITS WUC 1.26GPM AT 140F INLET WATER NODE,STRIPMALL STRIP MALL - TYPE 1 - 90.1-2013 42 UNITS WUC 1.26GPM AT 140F OUTLET WATER NODE
   Branch,4,STRIPMALL STRIP MALL - TYPE 1 - 90.1-2013 SERVICE WATER LOOP DEMAND BYPASS BRANCH,STRIPMALL STRIP MALL - TYPE 1 - 90.1-2013 SERVICE WATER LOOP,Plant Demand,STRIPMALL STRIP MALL - TYPE 1 - 90.1-2013 SERVICE WATER LOOP DEMAND BYPASS PIPE INLET NODE,STRIPMALL STRIP MALL - TYPE 1 - 90.1-2013 SERVICE WATER LOOP DEMAND BYPASS PIPE OUTLET NODE
   Branch,5,STRIPMALL STRIP MALL - TYPE 1 - 90.1-2013 SERVICE WATER LOOP DEMAND OUTLET BRANCH,STRIPMALL STRIP MALL - TYPE 1 - 90.1-2013 SERVICE WATER LOOP,Plant Demand,PIPE ADIABATIC 4 INLET WATER NODE,STRIPMALL STRIP MALL - TYPE 1 - 90.1-2013 SERVICE WATER LOOP DEMAND OUTLET NODE
 Branch List,12,STRIPMALL STRIP MALL - TYPE 2 - 90.1-2013 SERVICE WATER LOOP SUPPLY BRANCHES,STRIPMALL STRIP MALL - TYPE 2 - 90.1-2013 SERVICE WATER LOOP,Plant Supply,4
   Branch,1,STRIPMALL STRIP MALL - TYPE 2 - 90.1-2013 SERVICE WATER LOOP SUPPLY INLET BRANCH,STRIPMALL STRIP MALL - TYPE 2 - 90.1-2013 SERVICE WATER LOOP,Plant Supply,STRIPMALL STRIP MALL - TYPE 2 - 90.1-2013 SERVICE WATER LOOP SUPPLY INLET NODE,STRIPMALL STRIP MALL - TYPE 2 - 90.1-2013 SERVICE WATER LOOP WATER MAINS PRESSURE DRIVEN OUTLET WATER NODE
   Branch,2,STRIPMALL STRIP MALL - TYPE 2 - 90.1-2013 SERVICE WATER LOOP SUPPLY BRANCH 1,STRIPMALL STRIP MALL - TYPE 2 - 90.1-2013 SERVICE WATER LOOP,Plant Supply,42X 50GAL NATURALGAS WATER HEATER - 20KBTU/HR 1 SUPPLY INLET WATER NODE,42X 50GAL NATURALGAS WATER HEATER - 20KBTU/HR 1 SUPPLY OUTLET WATER NODE
   Branch,3,STRIPMALL STRIP MALL - TYPE 2 - 90.1-2013 SERVICE WATER LOOP SUPPLY BRANCH 2,STRIPMALL STRIP MALL - TYPE 2 - 90.1-2013 SERVICE WATER LOOP,Plant Supply,PIPE ADIABATIC 5 INLET WATER NODE,PIPE ADIABATIC 5 OUTLET WATER NODE
   Branch,4,STRIPMALL STRIP MALL - TYPE 2 - 90.1-2013 SERVICE WATER LOOP SUPPLY OUTLET BRANCH,STRIPMALL STRIP MALL - TYPE 2 - 90.1-2013 SERVICE WATER LOOP,Plant Supply,PIPE ADIABATIC 7 INLET WATER NODE,STRIPMALL STRIP MALL - TYPE 2 - 90.1-2013 SERVICE WATER LOOP SUPPLY OUTLET NODE
 Branch List,13,STRIPMALL STRIP MALL - TYPE 2 - 90.1-2013 SERVICE WATER LOOP DEMAND BRANCHES,STRIPMALL STRIP MALL - TYPE 2 - 90.1-2013 SERVICE WATER LOOP,Plant Demand,5
   Branch,1,STRIPMALL STRIP MALL - TYPE 2 - 90.1-2013 SERVICE WATER LOOP DEMAND INLET BRANCH,STRIPMALL STRIP MALL - TYPE 2 - 90.1-2013 SERVICE WATER LOOP,Plant Demand,STRIPMALL STRIP MALL - TYPE 2 - 90.1-2013 SERVICE WATER LOOP DEMAND INLET NODE,STRIPMALL STRIP MALL - TYPE 2 - 90.1-2013 SERVICE WATER LOOP PIPE 840.0FT OUTLET WATER NODE
   Branch,2,STRIPMALL STRIP MALL - TYPE 2 - 90.1-2013 SERVICE WATER LOOP DEMAND BRANCH 1,STRIPMALL STRIP MALL - TYPE 2 - 90.1-2013 SERVICE WATER LOOP,Plant Demand,PIPE ADIABATIC 6 INLET WATER NODE,PIPE ADIABATIC 6 OUTLET WATER NODE
   Branch,3,STRIPMALL STRIP MALL - TYPE 2 - 90.1-2013 SERVICE WATER LOOP DEMAND BRANCH 2,STRIPMALL STRIP MALL - TYPE 2 - 90.1-2013 SERVICE WATER LOOP,Plant Demand,STRIPMALL STRIP MALL - TYPE 2 - 90.1-2013 42 UNITS WUC 1.26GPM AT 140F INLET WATER NODE,STRIPMALL STRIP MALL - TYPE 2 - 90.1-2013 42 UNITS WUC 1.26GPM AT 140F OUTLET WATER NODE
   Branch,4,STRIPMALL STRIP MALL - TYPE 2 - 90.1-2013 SERVICE WATER LOOP DEMAND BYPASS BRANCH,STRIPMALL STRIP MALL - TYPE 2 - 90.1-2013 SERVICE WATER LOOP,Plant Demand,STRIPMALL STRIP MALL - TYPE 2 - 90.1-2013 SERVICE WATER LOOP DEMAND BYPASS PIPE INLET NODE,STRIPMALL STRIP MALL - TYPE 2 - 90.1-2013 SERVICE WATER LOOP DEMAND BYPASS PIPE OUTLET NODE
   Branch,5,STRIPMALL STRIP MALL - TYPE 2 - 90.1-2013 SERVICE WATER LOOP DEMAND OUTLET BRANCH,STRIPMALL STRIP MALL - TYPE 2 - 90.1-2013 SERVICE WATER LOOP,Plant Demand,PIPE ADIABATIC 8 INLET WATER NODE,STRIPMALL STRIP MALL - TYPE 2 - 90.1-2013 SERVICE WATER LOOP DEMAND OUTLET NODE
 Branch List,14,STRIPMALL STRIP MALL - TYPE 3 - 90.1-2013 SERVICE WATER LOOP SUPPLY BRANCHES,STRIPMALL STRIP MALL - TYPE 3 - 90.1-2013 SERVICE WATER LOOP,Plant Supply,4
   Branch,1,STRIPMALL STRIP MALL - TYPE 3 - 90.1-2013 SERVICE WATER LOOP SUPPLY INLET BRANCH,STRIPMALL STRIP MALL - TYPE 3 - 90.1-2013 SERVICE WATER LOOP,Plant Supply,STRIPMALL STRIP MALL - TYPE 3 - 90.1-2013 SERVICE WATER LOOP SUPPLY INLET NODE,STRIPMALL STRIP MALL - TYPE 3 - 90.1-2013 SERVICE WATER LOOP WATER MAINS PRESSURE DRIVEN OUTLET WATER NODE
   Branch,2,STRIPMALL STRIP MALL - TYPE 3 - 90.1-2013 SERVICE WATER LOOP SUPPLY BRANCH 1,STRIPMALL STRIP MALL - TYPE 3 - 90.1-2013 SERVICE WATER LOOP,Plant Supply,83X 50GAL NATURALGAS WATER HEATER - 20KBTU/HR SUPPLY INLET WATER NODE,83X 50GAL NATURALGAS WATER HEATER - 20KBTU/HR SUPPLY OUTLET WATER NODE
   Branch,3,STRIPMALL STRIP MALL - TYPE 3 - 90.1-2013 SERVICE WATER LOOP SUPPLY BRANCH 2,STRIPMALL STRIP MALL - TYPE 3 - 90.1-2013 SERVICE WATER LOOP,Plant Supply,PIPE ADIABATIC 9 INLET WATER NODE,PIPE ADIABATIC 9 OUTLET WATER NODE
   Branch,4,STRIPMALL STRIP MALL - TYPE 3 - 90.1-2013 SERVICE WATER LOOP SUPPLY OUTLET BRANCH,STRIPMALL STRIP MALL - TYPE 3 - 90.1-2013 SERVICE WATER LOOP,Plant Supply,PIPE ADIABATIC 11 INLET WATER NODE,STRIPMALL STRIP MALL - TYPE 3 - 90.1-2013 SERVICE WATER LOOP SUPPLY OUTLET NODE
 Branch List,15,STRIPMALL STRIP MALL - TYPE 3 - 90.1-2013 SERVICE WATER LOOP DEMAND BRANCHES,STRIPMALL STRIP MALL - TYPE 3 - 90.1-2013 SERVICE WATER LOOP,Plant Demand,5
   Branch,1,STRIPMALL STRIP MALL - TYPE 3 - 90.1-2013 SERVICE WATER LOOP DEMAND INLET BRANCH,STRIPMALL STRIP MALL - TYPE 3 - 90.1-2013 SERVICE WATER LOOP,Plant Demand,STRIPMALL STRIP MALL - TYPE 3 - 90.1-2013 SERVICE WATER LOOP DEMAND INLET NODE,STRIPMALL STRIP MALL - TYPE 3 - 90.1-2013 SERVICE WATER LOOP PIPE 1660.0FT OUTLET WATER NODE
   Branch,2,STRIPMALL STRIP MALL - TYPE 3 - 90.1-2013 SERVICE WATER LOOP DEMAND BRANCH 1,STRIPMALL STRIP MALL - TYPE 3 - 90.1-2013 SERVICE WATER LOOP,Plant Demand,PIPE ADIABATIC 10 INLET WATER NODE,PIPE ADIABATIC 10 OUTLET WATER NODE
   Branch,3,STRIPMALL STRIP MALL - TYPE 3 - 90.1-2013 SERVICE WATER LOOP DEMAND BRANCH 2,STRIPMALL STRIP MALL - TYPE 3 - 90.1-2013 SERVICE WATER LOOP,Plant Demand,STRIPMALL STRIP MALL - TYPE 3 - 90.1-2013 83 UNITS WUC 2.49GPM AT 140F INLET WATER NODE,STRIPMALL STRIP MALL - TYPE 3 - 90.1-2013 83 UNITS WUC 2.49GPM AT 140F OUTLET WATER NODE
   Branch,4,STRIPMALL STRIP MALL - TYPE 3 - 90.1-2013 SERVICE WATER LOOP DEMAND BYPASS BRANCH,STRIPMALL STRIP MALL - TYPE 3 - 90.1-2013 SERVICE WATER LOOP,Plant Demand,STRIPMALL STRIP MALL - TYPE 3 - 90.1-2013 SERVICE WATER LOOP DEMAND BYPASS PIPE INLET NODE,STRIPMALL STRIP MALL - TYPE 3 - 90.1-2013 SERVICE WATER LOOP DEMAND BYPASS PIPE OUTLET NODE
   Branch,5,STRIPMALL STRIP MALL - TYPE 3 - 90.1-2013 SERVICE WATER LOOP DEMAND OUTLET BRANCH,STRIPMALL STRIP MALL - TYPE 3 - 90.1-2013 SERVICE WATER LOOP,Plant Demand,PIPE ADIABATIC 12 INLET WATER NODE,STRIPMALL STRIP MALL - TYPE 3 - 90.1-2013 SERVICE WATER LOOP DEMAND OUTLET NODE
! ===============================================================
! <#Supply Air Paths>,<Number of Supply Air Paths>
 #Supply Air Paths,3
! <Supply Air Path>,<Supply Air Path Count>,<Supply Air Path Name>,<AirLoopHVAC Name>
! <#Components on Supply Air Path>,<Number of Components>
! <Supply Air Path Component>,<Component Count>,<Component Type>,<Component Name>,<AirLoopHVAC Name>
! <#Outlet Nodes on Supply Air Path Component>,<Number of Nodes>
! <Supply Air Path Component Nodes>,<Node Count>,<Component Type>,<Component Name>,<Inlet Node Name>,<Outlet Node Name>,<AirLoopHVAC Name>
 Supply Air Path,1,5 ZONE VAV 5 ZONE VAV DEMAND INLET NODE SUPPLY PATH,5 ZONE VAV
   #Components on Supply Air Path,1
   Supply Air Path Component,1,AIRLOOPHVAC:ZONESPLITTER,AIR LOOP HVAC ZONE SPLITTER 1,5 ZONE VAV
     #Outlet Nodes on Supply Air Path Component,5
     Supply Air Path Component Nodes,1,AIRLOOPHVAC:ZONESPLITTER,AIR LOOP HVAC ZONE SPLITTER 1,5 ZONE VAV DEMAND INLET NODE,BUILDING STORY 1 THERMALZONE VAV TERMINAL INLET AIR NODE,5 ZONE VAV
     Supply Air Path Component Nodes,2,AIRLOOPHVAC:ZONESPLITTER,AIR LOOP HVAC ZONE SPLITTER 1,5 ZONE VAV DEMAND INLET NODE,BUILDING STORY 1 THERMALZONE 1 VAV TERMINAL INLET AIR NODE,5 ZONE VAV
     Supply Air Path Component Nodes,3,AIRLOOPHVAC:ZONESPLITTER,AIR LOOP HVAC ZONE SPLITTER 1,5 ZONE VAV DEMAND INLET NODE,BUILDING STORY 1 THERMALZONE 2 VAV TERMINAL INLET AIR NODE,5 ZONE VAV
     Supply Air Path Component Nodes,4,AIRLOOPHVAC:ZONESPLITTER,AIR LOOP HVAC ZONE SPLITTER 1,5 ZONE VAV DEMAND INLET NODE,BUILDING STORY 1 THERMALZONE 3 VAV TERMINAL INLET AIR NODE,5 ZONE VAV
     Supply Air Path Component Nodes,5,AIRLOOPHVAC:ZONESPLITTER,AIR LOOP HVAC ZONE SPLITTER 1,5 ZONE VAV DEMAND INLET NODE,BUILDING STORY 1 THERMALZONE 4 VAV TERMINAL INLET AIR NODE,5 ZONE VAV
! <#Nodes on Supply Air Path>,<Number of Nodes>
! <Supply Air Path Node>,<Node Type>,<Node Count>,<Node Name>,<AirLoopHVAC Name>
#Nodes on Supply Air Path,6
   Supply Air Path Node,Inlet Node,1,5 ZONE VAV DEMAND INLET NODE,5 ZONE VAV
   Supply Air Path Node,Outlet Node,2,BUILDING STORY 1 THERMALZONE VAV TERMINAL INLET AIR NODE,5 ZONE VAV
   Supply Air Path Node,Outlet Node,3,BUILDING STORY 1 THERMALZONE 1 VAV TERMINAL INLET AIR NODE,5 ZONE VAV
   Supply Air Path Node,Outlet Node,4,BUILDING STORY 1 THERMALZONE 2 VAV TERMINAL INLET AIR NODE,5 ZONE VAV
   Supply Air Path Node,Outlet Node,5,BUILDING STORY 1 THERMALZONE 3 VAV TERMINAL INLET AIR NODE,5 ZONE VAV
   Supply Air Path Node,Outlet Node,6,BUILDING STORY 1 THERMALZONE 4 VAV TERMINAL INLET AIR NODE,5 ZONE VAV
 Supply Air Path,2,5 ZONE VAV 1 5 ZONE VAV 1 DEMAND INLET NODE SUPPLY PATH,5 ZONE VAV 1
   #Components on Supply Air Path,1
   Supply Air Path Component,1,AIRLOOPHVAC:ZONESPLITTER,AIR LOOP HVAC ZONE SPLITTER 2,5 ZONE VAV 1
     #Outlet Nodes on Supply Air Path Component,5
     Supply Air Path Component Nodes,1,AIRLOOPHVAC:ZONESPLITTER,AIR LOOP HVAC ZONE SPLITTER 2,5 ZONE VAV 1 DEMAND INLET NODE,BUILDING STORY 2 THERMALZONE VAV TERMINAL INLET AIR NODE,5 ZONE VAV 1
     Supply Air Path Component Nodes,2,AIRLOOPHVAC:ZONESPLITTER,AIR LOOP HVAC ZONE SPLITTER 2,5 ZONE VAV 1 DEMAND INLET NODE,BUILDING STORY 2 THERMALZONE 1 VAV TERMINAL INLET AIR NODE,5 ZONE VAV 1
     Supply Air Path Component Nodes,3,AIRLOOPHVAC:ZONESPLITTER,AIR LOOP HVAC ZONE SPLITTER 2,5 ZONE VAV 1 DEMAND INLET NODE,BUILDING STORY 2 THERMALZONE 2 VAV TERMINAL INLET AIR NODE,5 ZONE VAV 1
     Supply Air Path Component Nodes,4,AIRLOOPHVAC:ZONESPLITTER,AIR LOOP HVAC ZONE SPLITTER 2,5 ZONE VAV 1 DEMAND INLET NODE,BUILDING STORY 2 THERMALZONE 4 VAV TERMINAL INLET AIR NODE,5 ZONE VAV 1
     Supply Air Path Component Nodes,5,AIRLOOPHVAC:ZONESPLITTER,AIR LOOP HVAC ZONE SPLITTER 2,5 ZONE VAV 1 DEMAND INLET NODE,BUILDING STORY 2 THERMALZONE 3 VAV TERMINAL INLET AIR NODE,5 ZONE VAV 1
! <#Nodes on Supply Air Path>,<Number of Nodes>
! <Supply Air Path Node>,<Node Type>,<Node Count>,<Node Name>,<AirLoopHVAC Name>
#Nodes on Supply Air Path,6
   Supply Air Path Node,Inlet Node,1,5 ZONE VAV 1 DEMAND INLET NODE,5 ZONE VAV 1
   Supply Air Path Node,Outlet Node,2,BUILDING STORY 2 THERMALZONE VAV TERMINAL INLET AIR NODE,5 ZONE VAV 1
   Supply Air Path Node,Outlet Node,3,BUILDING STORY 2 THERMALZONE 1 VAV TERMINAL INLET AIR NODE,5 ZONE VAV 1
   Supply Air Path Node,Outlet Node,4,BUILDING STORY 2 THERMALZONE 2 VAV TERMINAL INLET AIR NODE,5 ZONE VAV 1
   Supply Air Path Node,Outlet Node,5,BUILDING STORY 2 THERMALZONE 4 VAV TERMINAL INLET AIR NODE,5 ZONE VAV 1
   Supply Air Path Node,Outlet Node,6,BUILDING STORY 2 THERMALZONE 3 VAV TERMINAL INLET AIR NODE,5 ZONE VAV 1
 Supply Air Path,3,5 ZONE VAV 2 5 ZONE VAV 2 DEMAND INLET NODE SUPPLY PATH,5 ZONE VAV 2
   #Components on Supply Air Path,1
   Supply Air Path Component,1,AIRLOOPHVAC:ZONESPLITTER,AIR LOOP HVAC ZONE SPLITTER 3,5 ZONE VAV 2
     #Outlet Nodes on Supply Air Path Component,5
     Supply Air Path Component Nodes,1,AIRLOOPHVAC:ZONESPLITTER,AIR LOOP HVAC ZONE SPLITTER 3,5 ZONE VAV 2 DEMAND INLET NODE,BUILDING STORY 3 THERMALZONE VAV TERMINAL INLET AIR NODE,5 ZONE VAV 2
     Supply Air Path Component Nodes,2,AIRLOOPHVAC:ZONESPLITTER,AIR LOOP HVAC ZONE SPLITTER 3,5 ZONE VAV 2 DEMAND INLET NODE,BUILDING STORY 3 THERMALZONE 1 VAV TERMINAL INLET AIR NODE,5 ZONE VAV 2
     Supply Air Path Component Nodes,3,AIRLOOPHVAC:ZONESPLITTER,AIR LOOP HVAC ZONE SPLITTER 3,5 ZONE VAV 2 DEMAND INLET NODE,BUILDING STORY 3 THERMALZONE 2 VAV TERMINAL INLET AIR NODE,5 ZONE VAV 2
     Supply Air Path Component Nodes,4,AIRLOOPHVAC:ZONESPLITTER,AIR LOOP HVAC ZONE SPLITTER 3,5 ZONE VAV 2 DEMAND INLET NODE,BUILDING STORY 3 THERMALZONE 3 VAV TERMINAL INLET AIR NODE,5 ZONE VAV 2
     Supply Air Path Component Nodes,5,AIRLOOPHVAC:ZONESPLITTER,AIR LOOP HVAC ZONE SPLITTER 3,5 ZONE VAV 2 DEMAND INLET NODE,BUILDING STORY 3 THERMALZONE 4 VAV TERMINAL INLET AIR NODE,5 ZONE VAV 2
! <#Nodes on Supply Air Path>,<Number of Nodes>
! <Supply Air Path Node>,<Node Type>,<Node Count>,<Node Name>,<AirLoopHVAC Name>
#Nodes on Supply Air Path,6
   Supply Air Path Node,Inlet Node,1,5 ZONE VAV 2 DEMAND INLET NODE,5 ZONE VAV 2
   Supply Air Path Node,Outlet Node,2,BUILDING STORY 3 THERMALZONE VAV TERMINAL INLET AIR NODE,5 ZONE VAV 2
   Supply Air Path Node,Outlet Node,3,BUILDING STORY 3 THERMALZONE 1 VAV TERMINAL INLET AIR NODE,5 ZONE VAV 2
   Supply Air Path Node,Outlet Node,4,BUILDING STORY 3 THERMALZONE 2 VAV TERMINAL INLET AIR NODE,5 ZONE VAV 2
   Supply Air Path Node,Outlet Node,5,BUILDING STORY 3 THERMALZONE 3 VAV TERMINAL INLET AIR NODE,5 ZONE VAV 2
   Supply Air Path Node,Outlet Node,6,BUILDING STORY 3 THERMALZONE 4 VAV TERMINAL INLET AIR NODE,5 ZONE VAV 2
! ===============================================================
! <#Return Air Paths>,<Number of Return Air Paths>
 #Return Air Paths,3
! <Return Air Path>,<Return Air Path Count>,<Return Air Path Name>,<AirLoopHVAC Name>
! <#Components on Return Air Path>,<Number of Components>
! <Return Air Path Component>,<Component Count>,<Component Type>,<Component Name>,<AirLoopHVAC Name>
! <#Inlet Nodes on Return Air Path Component>,<Number of Nodes>
! <Return Air Path Component Nodes>,<Node Count>,<Component Type>,<Component Name>,<Inlet Node Name>,<Outlet Node Name>,<AirLoopHVAC Name>
 Return Air Path,1,5 ZONE VAV RETURN PATH,5 ZONE VAV
   #Components on Return Air Path,1
   Return Air Path Component,1,AIRLOOPHVAC:ZONEMIXER,AIR LOOP HVAC ZONE MIXER 1,5 ZONE VAV
     #Inlet Nodes on Return Air Path Component,5
     Return Air Path Component Nodes,1,AIRLOOPHVAC:ZONEMIXER,AIR LOOP HVAC ZONE MIXER 1,BUILDING STORY 1 THERMALZONE RETURN AIR NODE,5 ZONE VAV DEMAND OUTLET NODE,5 ZONE VAV
     Return Air Path Component Nodes,2,AIRLOOPHVAC:ZONEMIXER,AIR LOOP HVAC ZONE MIXER 1,BUILDING STORY 1 THERMALZONE 1 RETURN AIR NODE,5 ZONE VAV DEMAND OUTLET NODE,5 ZONE VAV
     Return Air Path Component Nodes,3,AIRLOOPHVAC:ZONEMIXER,AIR LOOP HVAC ZONE MIXER 1,BUILDING STORY 1 THERMALZONE 2 RETURN AIR NODE,5 ZONE VAV DEMAND OUTLET NODE,5 ZONE VAV
     Return Air Path Component Nodes,4,AIRLOOPHVAC:ZONEMIXER,AIR LOOP HVAC ZONE MIXER 1,BUILDING STORY 1 THERMALZONE 3 RETURN AIR NODE,5 ZONE VAV DEMAND OUTLET NODE,5 ZONE VAV
     Return Air Path Component Nodes,5,AIRLOOPHVAC:ZONEMIXER,AIR LOOP HVAC ZONE MIXER 1,BUILDING STORY 1 THERMALZONE 4 RETURN AIR NODE,5 ZONE VAV DEMAND OUTLET NODE,5 ZONE VAV
! <#Nodes on Return Air Path>,<Number of Nodes>
! <Return Air Path Node>,<Node Type>,<Node Count>,<Node Name>,<AirLoopHVAC Name>
   #Nodes on Return Air Path,6
   Return Air Path Node,Outlet Node,1,5 ZONE VAV DEMAND OUTLET NODE,5 ZONE VAV
   Return Air Path Node,Inlet Node,2,BUILDING STORY 1 THERMALZONE RETURN AIR NODE,5 ZONE VAV
   Return Air Path Node,Inlet Node,3,BUILDING STORY 1 THERMALZONE 1 RETURN AIR NODE,5 ZONE VAV
   Return Air Path Node,Inlet Node,4,BUILDING STORY 1 THERMALZONE 2 RETURN AIR NODE,5 ZONE VAV
   Return Air Path Node,Inlet Node,5,BUILDING STORY 1 THERMALZONE 3 RETURN AIR NODE,5 ZONE VAV
   Return Air Path Node,Inlet Node,6,BUILDING STORY 1 THERMALZONE 4 RETURN AIR NODE,5 ZONE VAV
 Return Air Path,2,5 ZONE VAV 1 RETURN PATH,5 ZONE VAV 1
   #Components on Return Air Path,1
   Return Air Path Component,1,AIRLOOPHVAC:ZONEMIXER,AIR LOOP HVAC ZONE MIXER 2,5 ZONE VAV 1
     #Inlet Nodes on Return Air Path Component,5
     Return Air Path Component Nodes,1,AIRLOOPHVAC:ZONEMIXER,AIR LOOP HVAC ZONE MIXER 2,BUILDING STORY 2 THERMALZONE RETURN AIR NODE,5 ZONE VAV 1 DEMAND OUTLET NODE,5 ZONE VAV 1
     Return Air Path Component Nodes,2,AIRLOOPHVAC:ZONEMIXER,AIR LOOP HVAC ZONE MIXER 2,BUILDING STORY 2 THERMALZONE 1 RETURN AIR NODE,5 ZONE VAV 1 DEMAND OUTLET NODE,5 ZONE VAV 1
     Return Air Path Component Nodes,3,AIRLOOPHVAC:ZONEMIXER,AIR LOOP HVAC ZONE MIXER 2,BUILDING STORY 2 THERMALZONE 2 RETURN AIR NODE,5 ZONE VAV 1 DEMAND OUTLET NODE,5 ZONE VAV 1
     Return Air Path Component Nodes,4,AIRLOOPHVAC:ZONEMIXER,AIR LOOP HVAC ZONE MIXER 2,BUILDING STORY 2 THERMALZONE 4 RETURN AIR NODE,5 ZONE VAV 1 DEMAND OUTLET NODE,5 ZONE VAV 1
     Return Air Path Component Nodes,5,AIRLOOPHVAC:ZONEMIXER,AIR LOOP HVAC ZONE MIXER 2,BUILDING STORY 2 THERMALZONE 3 RETURN AIR NODE,5 ZONE VAV 1 DEMAND OUTLET NODE,5 ZONE VAV 1
! <#Nodes on Return Air Path>,<Number of Nodes>
! <Return Air Path Node>,<Node Type>,<Node Count>,<Node Name>,<AirLoopHVAC Name>
   #Nodes on Return Air Path,6
   Return Air Path Node,Outlet Node,1,5 ZONE VAV 1 DEMAND OUTLET NODE,5 ZONE VAV 1
   Return Air Path Node,Inlet Node,2,BUILDING STORY 2 THERMALZONE RETURN AIR NODE,5 ZONE VAV 1
   Return Air Path Node,Inlet Node,3,BUILDING STORY 2 THERMALZONE 1 RETURN AIR NODE,5 ZONE VAV 1
   Return Air Path Node,Inlet Node,4,BUILDING STORY 2 THERMALZONE 2 RETURN AIR NODE,5 ZONE VAV 1
   Return Air Path Node,Inlet Node,5,BUILDING STORY 2 THERMALZONE 4 RETURN AIR NODE,5 ZONE VAV 1
   Return Air Path Node,Inlet Node,6,BUILDING STORY 2 THERMALZONE 3 RETURN AIR NODE,5 ZONE VAV 1
 Return Air Path,3,5 ZONE VAV 2 RETURN PATH,5 ZONE VAV 2
   #Components on Return Air Path,1
   Return Air Path Component,1,AIRLOOPHVAC:ZONEMIXER,AIR LOOP HVAC ZONE MIXER 3,5 ZONE VAV 2
     #Inlet Nodes on Return Air Path Component,5
     Return Air Path Component Nodes,1,AIRLOOPHVAC:ZONEMIXER,AIR LOOP HVAC ZONE MIXER 3,BUILDING STORY 3 THERMALZONE RETURN AIR NODE,5 ZONE VAV 2 DEMAND OUTLET NODE,5 ZONE VAV 2
     Return Air Path Component Nodes,2,AIRLOOPHVAC:ZONEMIXER,AIR LOOP HVAC ZONE MIXER 3,BUILDING STORY 3 THERMALZONE 1 RETURN AIR NODE,5 ZONE VAV 2 DEMAND OUTLET NODE,5 ZONE VAV 2
     Return Air Path Component Nodes,3,AIRLOOPHVAC:ZONEMIXER,AIR LOOP HVAC ZONE MIXER 3,BUILDING STORY 3 THERMALZONE 2 RETURN AIR NODE,5 ZONE VAV 2 DEMAND OUTLET NODE,5 ZONE VAV 2
     Return Air Path Component Nodes,4,AIRLOOPHVAC:ZONEMIXER,AIR LOOP HVAC ZONE MIXER 3,BUILDING STORY 3 THERMALZONE 3 RETURN AIR NODE,5 ZONE VAV 2 DEMAND OUTLET NODE,5 ZONE VAV 2
     Return Air Path Component Nodes,5,AIRLOOPHVAC:ZONEMIXER,AIR LOOP HVAC ZONE MIXER 3,BUILDING STORY 3 THERMALZONE 4 RETURN AIR NODE,5 ZONE VAV 2 DEMAND OUTLET NODE,5 ZONE VAV 2
! <#Nodes on Return Air Path>,<Number of Nodes>
! <Return Air Path Node>,<Node Type>,<Node Count>,<Node Name>,<AirLoopHVAC Name>
   #Nodes on Return Air Path,6
   Return Air Path Node,Outlet Node,1,5 ZONE VAV 2 DEMAND OUTLET NODE,5 ZONE VAV 2
   Return Air Path Node,Inlet Node,2,BUILDING STORY 3 THERMALZONE RETURN AIR NODE,5 ZONE VAV 2
   Return Air Path Node,Inlet Node,3,BUILDING STORY 3 THERMALZONE 1 RETURN AIR NODE,5 ZONE VAV 2
   Return Air Path Node,Inlet Node,4,BUILDING STORY 3 THERMALZONE 2 RETURN AIR NODE,5 ZONE VAV 2
   Return Air Path Node,Inlet Node,5,BUILDING STORY 3 THERMALZONE 3 RETURN AIR NODE,5 ZONE VAV 2
   Return Air Path Node,Inlet Node,6,BUILDING STORY 3 THERMALZONE 4 RETURN AIR NODE,5 ZONE VAV 2
! ===============================================================
! #Outdoor Air Nodes,<Number of Outdoor Air Nodes>
 #Outdoor Air Nodes,4
! <Outdoor Air Node>,<NodeNumber>,<Node Name>
 Outdoor Air Node,214,5 ZONE VAV OUTDOOR AIR NODE
 Outdoor Air Node,215,5 ZONE VAV 1 OUTDOOR AIR NODE
 Outdoor Air Node,216,5 ZONE VAV 2 OUTDOOR AIR NODE
 Outdoor Air Node,217,MODEL OUTDOOR AIR NODE
! ===============================================================
! <#Component Sets>,<Number of Component Sets>
 #Component Sets,122
! <Component Set>,<Component Set Count>,<Parent Object Type>,<Parent Object Name>,<Component Type>,<Component Name>,<Inlet Node ID>,<Outlet Node ID>,<Description>
 Component Set,1,BRANCH,5 ZONE VAV MAIN BRANCH,AIRLOOPHVAC:OUTDOORAIRSYSTEM,5 ZONE VAV OA SYSTEM,5 ZONE VAV SUPPLY INLET NODE,5 ZONE VAV MIXED AIR NODE,Air Nodes
 Component Set,2,BRANCH,5 ZONE VAV MAIN BRANCH,COIL:COOLING:WATER,5 ZONE VAV CLG COIL,5 ZONE VAV MIXED AIR NODE,5 ZONE VAV CLG COIL OUTLET AIR NODE,Air Nodes
 Component Set,3,BRANCH,5 ZONE VAV MAIN BRANCH,COIL:HEATING:WATER,5 ZONE VAV MAIN HTG COIL,5 ZONE VAV CLG COIL OUTLET AIR NODE,5 ZONE VAV MAIN HTG COIL OUTLET AIR NODE,Air Nodes
 Component Set,4,BRANCH,5 ZONE VAV MAIN BRANCH,FAN:VARIABLEVOLUME,5 ZONE VAV FAN,5 ZONE VAV MAIN HTG COIL OUTLET AIR NODE,5 ZONE VAV SUPPLY OUTLET NODE,Air Nodes
 Component Set,5,BRANCH,5 ZONE VAV 1 MAIN BRANCH,AIRLOOPHVAC:OUTDOORAIRSYSTEM,5 ZONE VAV 1 OA SYSTEM,5 ZONE VAV 1 SUPPLY INLET NODE,5 ZONE VAV 1 MIXED AIR NODE,Air Nodes
 Component Set,6,BRANCH,5 ZONE VAV 1 MAIN BRANCH,COIL:COOLING:WATER,5 ZONE VAV 1 CLG COIL,5 ZONE VAV 1 MIXED AIR NODE,5 ZONE VAV 1 CLG COIL OUTLET AIR NODE,Air Nodes
 Component Set,7,BRANCH,5 ZONE VAV 1 MAIN BRANCH,COIL:HEATING:WATER,5 ZONE VAV 1 MAIN HTG COIL,5 ZONE VAV 1 CLG COIL OUTLET AIR NODE,5 ZONE VAV 1 MAIN HTG COIL OUTLET AIR NODE,Air Nodes
 Component Set,8,BRANCH,5 ZONE VAV 1 MAIN BRANCH,FAN:VARIABLEVOLUME,5 ZONE VAV 1 FAN,5 ZONE VAV 1 MAIN HTG COIL OUTLET AIR NODE,5 ZONE VAV 1 SUPPLY OUTLET NODE,Air Nodes
 Component Set,9,BRANCH,5 ZONE VAV 2 MAIN BRANCH,AIRLOOPHVAC:OUTDOORAIRSYSTEM,5 ZONE VAV 2 OA SYSTEM,5 ZONE VAV 2 SUPPLY INLET NODE,5 ZONE VAV 2 MIXED AIR NODE,Air Nodes
 Component Set,10,BRANCH,5 ZONE VAV 2 MAIN BRANCH,COIL:COOLING:WATER,5 ZONE VAV 2 CLG COIL,5 ZONE VAV 2 MIXED AIR NODE,5 ZONE VAV 2 CLG COIL OUTLET AIR NODE,Air Nodes
 Component Set,11,BRANCH,5 ZONE VAV 2 MAIN BRANCH,COIL:HEATING:WATER,5 ZONE VAV 2 MAIN HTG COIL,5 ZONE VAV 2 CLG COIL OUTLET AIR NODE,5 ZONE VAV 2 MAIN HTG COIL OUTLET AIR NODE,Air Nodes
 Component Set,12,BRANCH,5 ZONE VAV 2 MAIN BRANCH,FAN:VARIABLEVOLUME,5 ZONE VAV 2 FAN,5 ZONE VAV 2 MAIN HTG COIL OUTLET AIR NODE,5 ZONE VAV 2 SUPPLY OUTLET NODE,Air Nodes
 Component Set,13,BRANCH,CHILLED WATER LOOP SUPPLY INLET BRANCH,PUMP:CONSTANTSPEED,CHILLED WATER LOOP PRIMARY PUMP,CHILLED WATER LOOP SUPPLY INLET NODE,CHILLED WATER LOOP PRIMARY PUMP OUTLET WATER NODE,Water Nodes
 Component Set,14,BRANCH,CHILLED WATER LOOP SUPPLY BRANCH 1,CHILLER:ELECTRIC:EIR,90.1-2013 WATERCOOLED  ROTARY SCREW CHILLER 0 960TONS 0.6KW/TON,90.1-2013 WATERCOOLED  ROTARY SCREW CHILLER 0 SUPPLY INLET WATER NODE,90.1-2013 WATERCOOLED  ROTARY SCREW CHILLER 0 SUPPLY OUTLET WATER NODE,Chilled Water Nodes
 Component Set,15,BRANCH,CHILLED WATER LOOP SUPPLY BRANCH 2,PIPE:ADIABATIC,CHILLED WATER LOOP CHILLER BYPASS,CHILLED WATER LOOP CHILLER BYPASS INLET WATER NODE,CHILLED WATER LOOP CHILLER BYPASS OUTLET WATER NODE,Pipe Nodes
 Component Set,16,BRANCH,CHILLED WATER LOOP SUPPLY OUTLET BRANCH,PIPE:ADIABATIC,CHILLED WATER LOOP SUPPLY OUTLET,CHILLED WATER LOOP SUPPLY OUTLET INLET WATER NODE,CHILLED WATER LOOP SUPPLY OUTLET NODE,Pipe Nodes
 Component Set,17,BRANCH,CHILLED WATER LOOP DEMAND INLET BRANCH,PIPE:ADIABATIC,CHILLED WATER LOOP DEMAND INLET,CHILLED WATER LOOP DEMAND INLET NODE,CHILLED WATER LOOP SECONDARY PUMP INLET WATER NODE,Pipe Nodes
 Component Set,18,BRANCH,CHILLED WATER LOOP DEMAND INLET BRANCH,PUMP:VARIABLESPEED,CHILLED WATER LOOP SECONDARY PUMP,CHILLED WATER LOOP SECONDARY PUMP INLET WATER NODE,CHILLED WATER LOOP SECONDARY PUMP OUTLET WATER NODE,Water Nodes
 Component Set,19,BRANCH,CHILLED WATER LOOP DEMAND BRANCH 1,PIPE:ADIABATIC,CHILLED WATER LOOP COIL BYPASS,CHILLED WATER LOOP COIL BYPASS INLET WATER NODE,CHILLED WATER LOOP COIL BYPASS OUTLET WATER NODE,Pipe Nodes
 Component Set,20,BRANCH,CHILLED WATER LOOP DEMAND BRANCH 2,COIL:COOLING:WATER,5 ZONE VAV CLG COIL,5 ZONE VAV CLG COIL INLET WATER NODE,5 ZONE VAV CLG COIL OUTLET WATER NODE,Water Nodes
 Component Set,21,BRANCH,CHILLED WATER LOOP DEMAND BRANCH 3,COIL:COOLING:WATER,5 ZONE VAV 1 CLG COIL,5 ZONE VAV 1 CLG COIL INLET WATER NODE,5 ZONE VAV 1 CLG COIL OUTLET WATER NODE,Water Nodes
 Component Set,22,BRANCH,CHILLED WATER LOOP DEMAND BRANCH 4,COIL:COOLING:WATER,5 ZONE VAV 2 CLG COIL,5 ZONE VAV 2 CLG COIL INLET WATER NODE,5 ZONE VAV 2 CLG COIL OUTLET WATER NODE,Water Nodes
 Component Set,23,BRANCH,CHILLED WATER LOOP DEMAND BYPASS BRANCH,PIPE:ADIABATIC,CHILLED WATER LOOP DEMAND BYPASS PIPE,CHILLED WATER LOOP DEMAND BYPASS PIPE INLET NODE,CHILLED WATER LOOP DEMAND BYPASS PIPE OUTLET NODE,Pipe Nodes
 Component Set,24,BRANCH,CHILLED WATER LOOP DEMAND OUTLET BRANCH,PIPE:ADIABATIC,CHILLED WATER LOOP DEMAND OUTLET,CHILLED WATER LOOP DEMAND OUTLET INLET WATER NODE,CHILLED WATER LOOP DEMAND OUTLET NODE,Pipe Nodes
 Component Set,25,BRANCH,CONDENSER WATER LOOP SUPPLY INLET BRANCH,PUMP:CONSTANTSPEED,CONDENSER WATER LOOP CONSTANT PUMP,CONDENSER WATER LOOP SUPPLY INLET NODE,CONDENSER WATER LOOP CONSTANT PUMP OUTLET WATER NODE,Water Nodes
 Component Set,26,BRANCH,CONDENSER WATER LOOP SUPPLY BRANCH 1,COOLINGTOWER:VARIABLESPEED,PROPELLER OR AXIAL VARIABLE SPEED FAN OPEN COOLING TOWER 40.2 GPM/HP,PROPELLER OR AXIAL VARIABLE SPEED FAN OPEN COOLING TOWER INLET WATER NODE,PROPELLER OR AXIAL VARIABLE SPEED FAN OPEN COOLING TOWER OUTLET WATER NODE,Chilled Water Nodes
 Component Set,27,BRANCH,CONDENSER WATER LOOP SUPPLY BRANCH 2,PIPE:ADIABATIC,CONDENSER WATER LOOP COOLING TOWER BYPASS,CONDENSER WATER LOOP COOLING TOWER BYPASS INLET WATER NODE,CONDENSER WATER LOOP COOLING TOWER BYPASS OUTLET WATER NODE,Pipe Nodes
 Component Set,28,BRANCH,CONDENSER WATER LOOP SUPPLY OUTLET BRANCH,PIPE:ADIABATIC,CONDENSER WATER LOOP SUPPLY OUTLET,CONDENSER WATER LOOP SUPPLY OUTLET INLET WATER NODE,CONDENSER WATER LOOP SUPPLY OUTLET NODE,Pipe Nodes
 Component Set,29,BRANCH,CONDENSER WATER LOOP DEMAND INLET BRANCH,PIPE:ADIABATIC,CONDENSER WATER LOOP DEMAND INLET,CONDENSER WATER LOOP DEMAND INLET NODE,CONDENSER WATER LOOP DEMAND INLET OUTLET WATER NODE,Pipe Nodes
 Component Set,30,BRANCH,CONDENSER WATER LOOP DEMAND BRANCH 1,PIPE:ADIABATIC,CONDENSER WATER LOOP CHILLER BYPASS,CONDENSER WATER LOOP CHILLER BYPASS INLET WATER NODE,CONDENSER WATER LOOP CHILLER BYPASS OUTLET WATER NODE,Pipe Nodes
 Component Set,31,BRANCH,CONDENSER WATER LOOP DEMAND BRANCH 2,CHILLER:ELECTRIC:EIR,90.1-2013 WATERCOOLED  ROTARY SCREW CHILLER 0 960TONS 0.6KW/TON,90.1-2013 WATERCOOLED  ROTARY SCREW CHILLER 0 DEMAND INLET WATER NODE,90.1-2013 WATERCOOLED  ROTARY SCREW CHILLER 0 DEMAND OUTLET WATER NODE,Condenser Water Nodes
 Component Set,32,BRANCH,CONDENSER WATER LOOP DEMAND BYPASS BRANCH,PIPE:ADIABATIC,CONDENSER WATER LOOP DEMAND BYPASS PIPE,CONDENSER WATER LOOP DEMAND BYPASS PIPE INLET NODE,CONDENSER WATER LOOP DEMAND BYPASS PIPE OUTLET NODE,Pipe Nodes
 Component Set,33,BRANCH,CONDENSER WATER LOOP DEMAND OUTLET BRANCH,PIPE:ADIABATIC,CONDENSER WATER LOOP DEMAND OUTLET,CONDENSER WATER LOOP DEMAND OUTLET INLET WATER NODE,CONDENSER WATER LOOP DEMAND OUTLET NODE,Pipe Nodes
 Component Set,34,BRANCH,HOT WATER LOOP SUPPLY INLET BRANCH,PUMP:VARIABLESPEED,HOT WATER LOOP PUMP,HOT WATER LOOP SUPPLY INLET NODE,HOT WATER LOOP PUMP OUTLET WATER NODE,Water Nodes
 Component Set,35,BRANCH,HOT WATER LOOP SUPPLY BRANCH 1,BOILER:HOTWATER,BOILER 8704KBTU/HR 0.8 THERMAL EFF,BOILER INLET WATER NODE,BOILER OUTLET WATER NODE,Hot Water Nodes
 Component Set,36,BRANCH,HOT WATER LOOP SUPPLY BRANCH 2,PIPE:ADIABATIC,HOT WATER LOOP SUPPLY EQUIPMENT BYPASS,HOT WATER LOOP SUPPLY EQUIPMENT BYPASS INLET WATER NODE,HOT WATER LOOP SUPPLY EQUIPMENT BYPASS OUTLET WATER NODE,Pipe Nodes
 Component Set,37,BRANCH,HOT WATER LOOP SUPPLY OUTLET BRANCH,PIPE:ADIABATIC,HOT WATER LOOP SUPPLY OUTLET,HOT WATER LOOP SUPPLY OUTLET INLET WATER NODE,HOT WATER LOOP SUPPLY OUTLET NODE,Pipe Nodes
 Component Set,38,BRANCH,HOT WATER LOOP DEMAND INLET BRANCH,PIPE:ADIABATIC,HOT WATER LOOP DEMAND INLET,HOT WATER LOOP DEMAND INLET NODE,HOT WATER LOOP DEMAND INLET OUTLET WATER NODE,Pipe Nodes
 Component Set,39,BRANCH,HOT WATER LOOP DEMAND BRANCH 1,PIPE:ADIABATIC,HOT WATER LOOP COIL BYPASS,HOT WATER LOOP COIL BYPASS INLET WATER NODE,HOT WATER LOOP COIL BYPASS OUTLET WATER NODE,Pipe Nodes
 Component Set,40,BRANCH,HOT WATER LOOP DEMAND BRANCH 2,COIL:HEATING:WATER,5 ZONE VAV MAIN HTG COIL,5 ZONE VAV MAIN HTG COIL INLET WATER NODE,5 ZONE VAV MAIN HTG COIL OUTLET WATER NODE,Water Nodes
 Component Set,41,BRANCH,HOT WATER LOOP DEMAND BRANCH 3,COIL:HEATING:WATER,BUILDING STORY 1 THERMALZONE REHEAT COIL,BUILDING STORY 1 THERMALZONE REHEAT COIL INLET WATER NODE,BUILDING STORY 1 THERMALZONE REHEAT COIL OUTLET WATER NODE,Water Nodes
 Component Set,42,BRANCH,HOT WATER LOOP DEMAND BRANCH 4,COIL:HEATING:WATER,BUILDING STORY 1 THERMALZONE 1 REHEAT COIL,BUILDING STORY 1 THERMALZONE 1 REHEAT COIL INLET WATER NODE,BUILDING STORY 1 THERMALZONE 1 REHEAT COIL OUTLET WATER NODE,Water Nodes
 Component Set,43,BRANCH,HOT WATER LOOP DEMAND BRANCH 5,COIL:HEATING:WATER,BUILDING STORY 1 THERMALZONE 2 REHEAT COIL,BUILDING STORY 1 THERMALZONE 2 REHEAT COIL INLET WATER NODE,BUILDING STORY 1 THERMALZONE 2 REHEAT COIL OUTLET WATER NODE,Water Nodes
 Component Set,44,BRANCH,HOT WATER LOOP DEMAND BRANCH 6,COIL:HEATING:WATER,BUILDING STORY 1 THERMALZONE 3 REHEAT COIL,BUILDING STORY 1 THERMALZONE 3 REHEAT COIL INLET WATER NODE,BUILDING STORY 1 THERMALZONE 3 REHEAT COIL OUTLET WATER NODE,Water Nodes
 Component Set,45,BRANCH,HOT WATER LOOP DEMAND BRANCH 7,COIL:HEATING:WATER,BUILDING STORY 1 THERMALZONE 4 REHEAT COIL,BUILDING STORY 1 THERMALZONE 4 REHEAT COIL INLET WATER NODE,BUILDING STORY 1 THERMALZONE 4 REHEAT COIL OUTLET WATER NODE,Water Nodes
 Component Set,46,BRANCH,HOT WATER LOOP DEMAND BRANCH 8,COIL:HEATING:WATER,5 ZONE VAV 1 MAIN HTG COIL,5 ZONE VAV 1 MAIN HTG COIL INLET WATER NODE,5 ZONE VAV 1 MAIN HTG COIL OUTLET WATER NODE,Water Nodes
 Component Set,47,BRANCH,HOT WATER LOOP DEMAND BRANCH 9,COIL:HEATING:WATER,BUILDING STORY 2 THERMALZONE REHEAT COIL,BUILDING STORY 2 THERMALZONE REHEAT COIL INLET WATER NODE,BUILDING STORY 2 THERMALZONE REHEAT COIL OUTLET WATER NODE,Water Nodes
 Component Set,48,BRANCH,HOT WATER LOOP DEMAND BRANCH 10,COIL:HEATING:WATER,BUILDING STORY 2 THERMALZONE 1 REHEAT COIL,BUILDING STORY 2 THERMALZONE 1 REHEAT COIL INLET WATER NODE,BUILDING STORY 2 THERMALZONE 1 REHEAT COIL OUTLET WATER NODE,Water Nodes
 Component Set,49,BRANCH,HOT WATER LOOP DEMAND BRANCH 11,COIL:HEATING:WATER,BUILDING STORY 2 THERMALZONE 2 REHEAT COIL,BUILDING STORY 2 THERMALZONE 2 REHEAT COIL INLET WATER NODE,BUILDING STORY 2 THERMALZONE 2 REHEAT COIL OUTLET WATER NODE,Water Nodes
 Component Set,50,BRANCH,HOT WATER LOOP DEMAND BRANCH 12,COIL:HEATING:WATER,BUILDING STORY 2 THERMALZONE 4 REHEAT COIL,BUILDING STORY 2 THERMALZONE 4 REHEAT COIL INLET WATER NODE,BUILDING STORY 2 THERMALZONE 4 REHEAT COIL OUTLET WATER NODE,Water Nodes
 Component Set,51,BRANCH,HOT WATER LOOP DEMAND BRANCH 13,COIL:HEATING:WATER,BUILDING STORY 2 THERMALZONE 3 REHEAT COIL,BUILDING STORY 2 THERMALZONE 3 REHEAT COIL INLET WATER NODE,BUILDING STORY 2 THERMALZONE 3 REHEAT COIL OUTLET WATER NODE,Water Nodes
 Component Set,52,BRANCH,HOT WATER LOOP DEMAND BRANCH 14,COIL:HEATING:WATER,5 ZONE VAV 2 MAIN HTG COIL,5 ZONE VAV 2 MAIN HTG COIL INLET WATER NODE,5 ZONE VAV 2 MAIN HTG COIL OUTLET WATER NODE,Water Nodes
 Component Set,53,BRANCH,HOT WATER LOOP DEMAND BRANCH 15,COIL:HEATING:WATER,BUILDING STORY 3 THERMALZONE REHEAT COIL,BUILDING STORY 3 THERMALZONE REHEAT COIL INLET WATER NODE,BUILDING STORY 3 THERMALZONE REHEAT COIL OUTLET WATER NODE,Water Nodes
 Component Set,54,BRANCH,HOT WATER LOOP DEMAND BRANCH 16,COIL:HEATING:WATER,BUILDING STORY 3 THERMALZONE 1 REHEAT COIL,BUILDING STORY 3 THERMALZONE 1 REHEAT COIL INLET WATER NODE,BUILDING STORY 3 THERMALZONE 1 REHEAT COIL OUTLET WATER NODE,Water Nodes
 Component Set,55,BRANCH,HOT WATER LOOP DEMAND BRANCH 17,COIL:HEATING:WATER,BUILDING STORY 3 THERMALZONE 2 REHEAT COIL,BUILDING STORY 3 THERMALZONE 2 REHEAT COIL INLET WATER NODE,BUILDING STORY 3 THERMALZONE 2 REHEAT COIL OUTLET WATER NODE,Water Nodes
 Component Set,56,BRANCH,HOT WATER LOOP DEMAND BRANCH 18,COIL:HEATING:WATER,BUILDING STORY 3 THERMALZONE 3 REHEAT COIL,BUILDING STORY 3 THERMALZONE 3 REHEAT COIL INLET WATER NODE,BUILDING STORY 3 THERMALZONE 3 REHEAT COIL OUTLET WATER NODE,Water Nodes
 Component Set,57,BRANCH,HOT WATER LOOP DEMAND BRANCH 19,COIL:HEATING:WATER,BUILDING STORY 3 THERMALZONE 4 REHEAT COIL,BUILDING STORY 3 THERMALZONE 4 REHEAT COIL INLET WATER NODE,BUILDING STORY 3 THERMALZONE 4 REHEAT COIL OUTLET WATER NODE,Water Nodes
 Component Set,58,BRANCH,HOT WATER LOOP DEMAND BYPASS BRANCH,PIPE:ADIABATIC,HOT WATER LOOP DEMAND BYPASS PIPE,HOT WATER LOOP DEMAND BYPASS PIPE INLET NODE,HOT WATER LOOP DEMAND BYPASS PIPE OUTLET NODE,Pipe Nodes
 Component Set,59,BRANCH,HOT WATER LOOP DEMAND OUTLET BRANCH,PIPE:ADIABATIC,HOT WATER LOOP DEMAND OUTLET,HOT WATER LOOP DEMAND OUTLET INLET WATER NODE,HOT WATER LOOP DEMAND OUTLET NODE,Pipe Nodes
 Component Set,60,BRANCH,STRIPMALL STRIP MALL - TYPE 1 - 90.1-2013 SERVICE WATER LOOP SUPPLY INLET BRANCH,PUMP:VARIABLESPEED,STRIPMALL STRIP MALL - TYPE 1 - 90.1-2013 SERVICE WATER LOOP WATER MAINS PRESSURE DRIVEN,STRIPMALL STRIP MALL - TYPE 1 - 90.1-2013 SERVICE WATER LOOP SUPPLY INLET NODE,STRIPMALL STRIP MALL - TYPE 1 - 90.1-2013 SERVICE WATER LOOP WATER MAINS PRESSURE DRIVEN OUTLET WATER NODE,Water Nodes
 Component Set,61,BRANCH,STRIPMALL STRIP MALL - TYPE 1 - 90.1-2013 SERVICE WATER LOOP SUPPLY BRANCH 1,WATERHEATER:MIXED,42X 50GAL NATURALGAS WATER HEATER - 20KBTU/HR 0.82 THERM EFF,42X 50GAL NATURALGAS WATER HEATER - 20KBTU/HR SUPPLY INLET WATER NODE,42X 50GAL NATURALGAS WATER HEATER - 20KBTU/HR SUPPLY OUTLET WATER NODE,Use Side Water Nodes
 Component Set,62,BRANCH,STRIPMALL STRIP MALL - TYPE 1 - 90.1-2013 SERVICE WATER LOOP SUPPLY BRANCH 2,PIPE:ADIABATIC,PIPE ADIABATIC 1,PIPE ADIABATIC 1 INLET WATER NODE,PIPE ADIABATIC 1 OUTLET WATER NODE,Pipe Nodes
 Component Set,63,BRANCH,STRIPMALL STRIP MALL - TYPE 1 - 90.1-2013 SERVICE WATER LOOP SUPPLY OUTLET BRANCH,PIPE:ADIABATIC,PIPE ADIABATIC 3,PIPE ADIABATIC 3 INLET WATER NODE,STRIPMALL STRIP MALL - TYPE 1 - 90.1-2013 SERVICE WATER LOOP SUPPLY OUTLET NODE,Pipe Nodes
 Component Set,64,BRANCH,STRIPMALL STRIP MALL - TYPE 1 - 90.1-2013 SERVICE WATER LOOP DEMAND INLET BRANCH,PIPE:INDOOR,STRIPMALL STRIP MALL - TYPE 1 - 90.1-2013 SERVICE WATER LOOP PIPE 840.0FT,STRIPMALL STRIP MALL - TYPE 1 - 90.1-2013 SERVICE WATER LOOP DEMAND INLET NODE,STRIPMALL STRIP MALL - TYPE 1 - 90.1-2013 SERVICE WATER LOOP PIPE 840.0FT OUTLET WATER NODE,Pipe Nodes
 Component Set,65,BRANCH,STRIPMALL STRIP MALL - TYPE 1 - 90.1-2013 SERVICE WATER LOOP DEMAND BRANCH 1,PIPE:ADIABATIC,PIPE ADIABATIC 2,PIPE ADIABATIC 2 INLET WATER NODE,PIPE ADIABATIC 2 OUTLET WATER NODE,Pipe Nodes
 Component Set,66,BRANCH,STRIPMALL STRIP MALL - TYPE 1 - 90.1-2013 SERVICE WATER LOOP DEMAND BRANCH 2,WATERUSE:CONNECTIONS,STRIPMALL STRIP MALL - TYPE 1 - 90.1-2013 42 UNITS WUC 1.26GPM AT 140F,STRIPMALL STRIP MALL - TYPE 1 - 90.1-2013 42 UNITS WUC 1.26GPM AT 140F INLET WATER NODE,STRIPMALL STRIP MALL - TYPE 1 - 90.1-2013 42 UNITS WUC 1.26GPM AT 140F OUTLET WATER NODE,DHW Nodes
 Component Set,67,BRANCH,STRIPMALL STRIP MALL - TYPE 1 - 90.1-2013 SERVICE WATER LOOP DEMAND BYPASS BRANCH,PIPE:ADIABATIC,STRIPMALL STRIP MALL - TYPE 1 - 90.1-2013 SERVICE WATER LOOP DEMAND BYPASS PIPE,STRIPMALL STRIP MALL - TYPE 1 - 90.1-2013 SERVICE WATER LOOP DEMAND BYPASS PIPE INLET NODE,STRIPMALL STRIP MALL - TYPE 1 - 90.1-2013 SERVICE WATER LOOP DEMAND BYPASS PIPE OUTLET NODE,Pipe Nodes
 Component Set,68,BRANCH,STRIPMALL STRIP MALL - TYPE 1 - 90.1-2013 SERVICE WATER LOOP DEMAND OUTLET BRANCH,PIPE:ADIABATIC,PIPE ADIABATIC 4,PIPE ADIABATIC 4 INLET WATER NODE,STRIPMALL STRIP MALL - TYPE 1 - 90.1-2013 SERVICE WATER LOOP DEMAND OUTLET NODE,Pipe Nodes
 Component Set,69,BRANCH,STRIPMALL STRIP MALL - TYPE 2 - 90.1-2013 SERVICE WATER LOOP SUPPLY INLET BRANCH,PUMP:VARIABLESPEED,STRIPMALL STRIP MALL - TYPE 2 - 90.1-2013 SERVICE WATER LOOP WATER MAINS PRESSURE DRIVEN,STRIPMALL STRIP MALL - TYPE 2 - 90.1-2013 SERVICE WATER LOOP SUPPLY INLET NODE,STRIPMALL STRIP MALL - TYPE 2 - 90.1-2013 SERVICE WATER LOOP WATER MAINS PRESSURE DRIVEN OUTLET WATER NODE,Water Nodes
 Component Set,70,BRANCH,STRIPMALL STRIP MALL - TYPE 2 - 90.1-2013 SERVICE WATER LOOP SUPPLY BRANCH 1,WATERHEATER:MIXED,42X 50GAL NATURALGAS WATER HEATER - 20KBTU/HR 1 0.82 THERM EFF,42X 50GAL NATURALGAS WATER HEATER - 20KBTU/HR 1 SUPPLY INLET WATER NODE,42X 50GAL NATURALGAS WATER HEATER - 20KBTU/HR 1 SUPPLY OUTLET WATER NODE,Use Side Water Nodes
 Component Set,71,BRANCH,STRIPMALL STRIP MALL - TYPE 2 - 90.1-2013 SERVICE WATER LOOP SUPPLY BRANCH 2,PIPE:ADIABATIC,PIPE ADIABATIC 5,PIPE ADIABATIC 5 INLET WATER NODE,PIPE ADIABATIC 5 OUTLET WATER NODE,Pipe Nodes
 Component Set,72,BRANCH,STRIPMALL STRIP MALL - TYPE 2 - 90.1-2013 SERVICE WATER LOOP SUPPLY OUTLET BRANCH,PIPE:ADIABATIC,PIPE ADIABATIC 7,PIPE ADIABATIC 7 INLET WATER NODE,STRIPMALL STRIP MALL - TYPE 2 - 90.1-2013 SERVICE WATER LOOP SUPPLY OUTLET NODE,Pipe Nodes
 Component Set,73,BRANCH,STRIPMALL STRIP MALL - TYPE 2 - 90.1-2013 SERVICE WATER LOOP DEMAND INLET BRANCH,PIPE:INDOOR,STRIPMALL STRIP MALL - TYPE 2 - 90.1-2013 SERVICE WATER LOOP PIPE 840.0FT,STRIPMALL STRIP MALL - TYPE 2 - 90.1-2013 SERVICE WATER LOOP DEMAND INLET NODE,STRIPMALL STRIP MALL - TYPE 2 - 90.1-2013 SERVICE WATER LOOP PIPE 840.0FT OUTLET WATER NODE,Pipe Nodes
 Component Set,74,BRANCH,STRIPMALL STRIP MALL - TYPE 2 - 90.1-2013 SERVICE WATER LOOP DEMAND BRANCH 1,PIPE:ADIABATIC,PIPE ADIABATIC 6,PIPE ADIABATIC 6 INLET WATER NODE,PIPE ADIABATIC 6 OUTLET WATER NODE,Pipe Nodes
 Component Set,75,BRANCH,STRIPMALL STRIP MALL - TYPE 2 - 90.1-2013 SERVICE WATER LOOP DEMAND BRANCH 2,WATERUSE:CONNECTIONS,STRIPMALL STRIP MALL - TYPE 2 - 90.1-2013 42 UNITS WUC 1.26GPM AT 140F,STRIPMALL STRIP MALL - TYPE 2 - 90.1-2013 42 UNITS WUC 1.26GPM AT 140F INLET WATER NODE,STRIPMALL STRIP MALL - TYPE 2 - 90.1-2013 42 UNITS WUC 1.26GPM AT 140F OUTLET WATER NODE,DHW Nodes
 Component Set,76,BRANCH,STRIPMALL STRIP MALL - TYPE 2 - 90.1-2013 SERVICE WATER LOOP DEMAND BYPASS BRANCH,PIPE:ADIABATIC,STRIPMALL STRIP MALL - TYPE 2 - 90.1-2013 SERVICE WATER LOOP DEMAND BYPASS PIPE,STRIPMALL STRIP MALL - TYPE 2 - 90.1-2013 SERVICE WATER LOOP DEMAND BYPASS PIPE INLET NODE,STRIPMALL STRIP MALL - TYPE 2 - 90.1-2013 SERVICE WATER LOOP DEMAND BYPASS PIPE OUTLET NODE,Pipe Nodes
 Component Set,77,BRANCH,STRIPMALL STRIP MALL - TYPE 2 - 90.1-2013 SERVICE WATER LOOP DEMAND OUTLET BRANCH,PIPE:ADIABATIC,PIPE ADIABATIC 8,PIPE ADIABATIC 8 INLET WATER NODE,STRIPMALL STRIP MALL - TYPE 2 - 90.1-2013 SERVICE WATER LOOP DEMAND OUTLET NODE,Pipe Nodes
 Component Set,78,BRANCH,STRIPMALL STRIP MALL - TYPE 3 - 90.1-2013 SERVICE WATER LOOP SUPPLY INLET BRANCH,PUMP:VARIABLESPEED,STRIPMALL STRIP MALL - TYPE 3 - 90.1-2013 SERVICE WATER LOOP WATER MAINS PRESSURE DRIVEN,STRIPMALL STRIP MALL - TYPE 3 - 90.1-2013 SERVICE WATER LOOP SUPPLY INLET NODE,STRIPMALL STRIP MALL - TYPE 3 - 90.1-2013 SERVICE WATER LOOP WATER MAINS PRESSURE DRIVEN OUTLET WATER NODE,Water Nodes
 Component Set,79,BRANCH,STRIPMALL STRIP MALL - TYPE 3 - 90.1-2013 SERVICE WATER LOOP SUPPLY BRANCH 1,WATERHEATER:MIXED,83X 50GAL NATURALGAS WATER HEATER - 20KBTU/HR 0.82 THERM EFF,83X 50GAL NATURALGAS WATER HEATER - 20KBTU/HR SUPPLY INLET WATER NODE,83X 50GAL NATURALGAS WATER HEATER - 20KBTU/HR SUPPLY OUTLET WATER NODE,Use Side Water Nodes
 Component Set,80,BRANCH,STRIPMALL STRIP MALL - TYPE 3 - 90.1-2013 SERVICE WATER LOOP SUPPLY BRANCH 2,PIPE:ADIABATIC,PIPE ADIABATIC 9,PIPE ADIABATIC 9 INLET WATER NODE,PIPE ADIABATIC 9 OUTLET WATER NODE,Pipe Nodes
 Component Set,81,BRANCH,STRIPMALL STRIP MALL - TYPE 3 - 90.1-2013 SERVICE WATER LOOP SUPPLY OUTLET BRANCH,PIPE:ADIABATIC,PIPE ADIABATIC 11,PIPE ADIABATIC 11 INLET WATER NODE,STRIPMALL STRIP MALL - TYPE 3 - 90.1-2013 SERVICE WATER LOOP SUPPLY OUTLET NODE,Pipe Nodes
 Component Set,82,BRANCH,STRIPMALL STRIP MALL - TYPE 3 - 90.1-2013 SERVICE WATER LOOP DEMAND INLET BRANCH,PIPE:INDOOR,STRIPMALL STRIP MALL - TYPE 3 - 90.1-2013 SERVICE WATER LOOP PIPE 1660.0FT,STRIPMALL STRIP MALL - TYPE 3 - 90.1-2013 SERVICE WATER LOOP DEMAND INLET NODE,STRIPMALL STRIP MALL - TYPE 3 - 90.1-2013 SERVICE WATER LOOP PIPE 1660.0FT OUTLET WATER NODE,Pipe Nodes
 Component Set,83,BRANCH,STRIPMALL STRIP MALL - TYPE 3 - 90.1-2013 SERVICE WATER LOOP DEMAND BRANCH 1,PIPE:ADIABATIC,PIPE ADIABATIC 10,PIPE ADIABATIC 10 INLET WATER NODE,PIPE ADIABATIC 10 OUTLET WATER NODE,Pipe Nodes
 Component Set,84,BRANCH,STRIPMALL STRIP MALL - TYPE 3 - 90.1-2013 SERVICE WATER LOOP DEMAND BRANCH 2,WATERUSE:CONNECTIONS,STRIPMALL STRIP MALL - TYPE 3 - 90.1-2013 83 UNITS WUC 2.49GPM AT 140F,STRIPMALL STRIP MALL - TYPE 3 - 90.1-2013 83 UNITS WUC 2.49GPM AT 140F INLET WATER NODE,STRIPMALL STRIP MALL - TYPE 3 - 90.1-2013 83 UNITS WUC 2.49GPM AT 140F OUTLET WATER NODE,DHW Nodes
 Component Set,85,BRANCH,STRIPMALL STRIP MALL - TYPE 3 - 90.1-2013 SERVICE WATER LOOP DEMAND BYPASS BRANCH,PIPE:ADIABATIC,STRIPMALL STRIP MALL - TYPE 3 - 90.1-2013 SERVICE WATER LOOP DEMAND BYPASS PIPE,STRIPMALL STRIP MALL - TYPE 3 - 90.1-2013 SERVICE WATER LOOP DEMAND BYPASS PIPE INLET NODE,STRIPMALL STRIP MALL - TYPE 3 - 90.1-2013 SERVICE WATER LOOP DEMAND BYPASS PIPE OUTLET NODE,Pipe Nodes
 Component Set,86,BRANCH,STRIPMALL STRIP MALL - TYPE 3 - 90.1-2013 SERVICE WATER LOOP DEMAND OUTLET BRANCH,PIPE:ADIABATIC,PIPE ADIABATIC 12,PIPE ADIABATIC 12 INLET WATER NODE,STRIPMALL STRIP MALL - TYPE 3 - 90.1-2013 SERVICE WATER LOOP DEMAND OUTLET NODE,Pipe Nodes
 Component Set,87,ZONEHVAC:AIRDISTRIBUTIONUNIT,ADU BUILDING STORY 1 THERMALZONE VAV TERMINAL,AIRTERMINAL:SINGLEDUCT:VAV:REHEAT,BUILDING STORY 1 THERMALZONE VAV TERMINAL,BUILDING STORY 1 THERMALZONE VAV TERMINAL INLET AIR NODE,BUILDING STORY 1 THERMALZONE VAV TERMINAL OUTLET AIR NODE,Air Nodes
 Component Set,88,ZONEHVAC:AIRDISTRIBUTIONUNIT,ADU BUILDING STORY 1 THERMALZONE 1 VAV TERMINAL,AIRTERMINAL:SINGLEDUCT:VAV:REHEAT,BUILDING STORY 1 THERMALZONE 1 VAV TERMINAL,BUILDING STORY 1 THERMALZONE 1 VAV TERMINAL INLET AIR NODE,BUILDING STORY 1 THERMALZONE 1 VAV TERMINAL OUTLET AIR NODE,Air Nodes
 Component Set,89,ZONEHVAC:AIRDISTRIBUTIONUNIT,ADU BUILDING STORY 1 THERMALZONE 2 VAV TERMINAL,AIRTERMINAL:SINGLEDUCT:VAV:REHEAT,BUILDING STORY 1 THERMALZONE 2 VAV TERMINAL,BUILDING STORY 1 THERMALZONE 2 VAV TERMINAL INLET AIR NODE,BUILDING STORY 1 THERMALZONE 2 VAV TERMINAL OUTLET AIR NODE,Air Nodes
 Component Set,90,ZONEHVAC:AIRDISTRIBUTIONUNIT,ADU BUILDING STORY 1 THERMALZONE 3 VAV TERMINAL,AIRTERMINAL:SINGLEDUCT:VAV:REHEAT,BUILDING STORY 1 THERMALZONE 3 VAV TERMINAL,BUILDING STORY 1 THERMALZONE 3 VAV TERMINAL INLET AIR NODE,BUILDING STORY 1 THERMALZONE 3 VAV TERMINAL OUTLET AIR NODE,Air Nodes
 Component Set,91,ZONEHVAC:AIRDISTRIBUTIONUNIT,ADU BUILDING STORY 1 THERMALZONE 4 VAV TERMINAL,AIRTERMINAL:SINGLEDUCT:VAV:REHEAT,BUILDING STORY 1 THERMALZONE 4 VAV TERMINAL,BUILDING STORY 1 THERMALZONE 4 VAV TERMINAL INLET AIR NODE,BUILDING STORY 1 THERMALZONE 4 VAV TERMINAL OUTLET AIR NODE,Air Nodes
 Component Set,92,ZONEHVAC:AIRDISTRIBUTIONUNIT,ADU BUILDING STORY 2 THERMALZONE VAV TERMINAL,AIRTERMINAL:SINGLEDUCT:VAV:REHEAT,BUILDING STORY 2 THERMALZONE VAV TERMINAL,BUILDING STORY 2 THERMALZONE VAV TERMINAL INLET AIR NODE,BUILDING STORY 2 THERMALZONE VAV TERMINAL OUTLET AIR NODE,Air Nodes
 Component Set,93,ZONEHVAC:AIRDISTRIBUTIONUNIT,ADU BUILDING STORY 2 THERMALZONE 1 VAV TERMINAL,AIRTERMINAL:SINGLEDUCT:VAV:REHEAT,BUILDING STORY 2 THERMALZONE 1 VAV TERMINAL,BUILDING STORY 2 THERMALZONE 1 VAV TERMINAL INLET AIR NODE,BUILDING STORY 2 THERMALZONE 1 VAV TERMINAL OUTLET AIR NODE,Air Nodes
 Component Set,94,ZONEHVAC:AIRDISTRIBUTIONUNIT,ADU BUILDING STORY 2 THERMALZONE 2 VAV TERMINAL,AIRTERMINAL:SINGLEDUCT:VAV:REHEAT,BUILDING STORY 2 THERMALZONE 2 VAV TERMINAL,BUILDING STORY 2 THERMALZONE 2 VAV TERMINAL INLET AIR NODE,BUILDING STORY 2 THERMALZONE 2 VAV TERMINAL OUTLET AIR NODE,Air Nodes
 Component Set,95,ZONEHVAC:AIRDISTRIBUTIONUNIT,ADU BUILDING STORY 2 THERMALZONE 3 VAV TERMINAL,AIRTERMINAL:SINGLEDUCT:VAV:REHEAT,BUILDING STORY 2 THERMALZONE 3 VAV TERMINAL,BUILDING STORY 2 THERMALZONE 3 VAV TERMINAL INLET AIR NODE,BUILDING STORY 2 THERMALZONE 3 VAV TERMINAL OUTLET AIR NODE,Air Nodes
 Component Set,96,ZONEHVAC:AIRDISTRIBUTIONUNIT,ADU BUILDING STORY 2 THERMALZONE 4 VAV TERMINAL,AIRTERMINAL:SINGLEDUCT:VAV:REHEAT,BUILDING STORY 2 THERMALZONE 4 VAV TERMINAL,BUILDING STORY 2 THERMALZONE 4 VAV TERMINAL INLET AIR NODE,BUILDING STORY 2 THERMALZONE 4 VAV TERMINAL OUTLET AIR NODE,Air Nodes
 Component Set,97,ZONEHVAC:AIRDISTRIBUTIONUNIT,ADU BUILDING STORY 3 THERMALZONE VAV TERMINAL,AIRTERMINAL:SINGLEDUCT:VAV:REHEAT,BUILDING STORY 3 THERMALZONE VAV TERMINAL,BUILDING STORY 3 THERMALZONE VAV TERMINAL INLET AIR NODE,BUILDING STORY 3 THERMALZONE VAV TERMINAL OUTLET AIR NODE,Air Nodes
 Component Set,98,ZONEHVAC:AIRDISTRIBUTIONUNIT,ADU BUILDING STORY 3 THERMALZONE 1 VAV TERMINAL,AIRTERMINAL:SINGLEDUCT:VAV:REHEAT,BUILDING STORY 3 THERMALZONE 1 VAV TERMINAL,BUILDING STORY 3 THERMALZONE 1 VAV TERMINAL INLET AIR NODE,BUILDING STORY 3 THERMALZONE 1 VAV TERMINAL OUTLET AIR NODE,Air Nodes
 Component Set,99,ZONEHVAC:AIRDISTRIBUTIONUNIT,ADU BUILDING STORY 3 THERMALZONE 2 VAV TERMINAL,AIRTERMINAL:SINGLEDUCT:VAV:REHEAT,BUILDING STORY 3 THERMALZONE 2 VAV TERMINAL,BUILDING STORY 3 THERMALZONE 2 VAV TERMINAL INLET AIR NODE,BUILDING STORY 3 THERMALZONE 2 VAV TERMINAL OUTLET AIR NODE,Air Nodes
 Component Set,100,ZONEHVAC:AIRDISTRIBUTIONUNIT,ADU BUILDING STORY 3 THERMALZONE 3 VAV TERMINAL,AIRTERMINAL:SINGLEDUCT:VAV:REHEAT,BUILDING STORY 3 THERMALZONE 3 VAV TERMINAL,BUILDING STORY 3 THERMALZONE 3 VAV TERMINAL INLET AIR NODE,BUILDING STORY 3 THERMALZONE 3 VAV TERMINAL OUTLET AIR NODE,Air Nodes
 Component Set,101,ZONEHVAC:AIRDISTRIBUTIONUNIT,ADU BUILDING STORY 3 THERMALZONE 4 VAV TERMINAL,AIRTERMINAL:SINGLEDUCT:VAV:REHEAT,BUILDING STORY 3 THERMALZONE 4 VAV TERMINAL,BUILDING STORY 3 THERMALZONE 4 VAV TERMINAL INLET AIR NODE,BUILDING STORY 3 THERMALZONE 4 VAV TERMINAL OUTLET AIR NODE,Air Nodes
 Component Set,102,AIRTERMINAL:SINGLEDUCT:VAV:REHEAT,BUILDING STORY 1 THERMALZONE VAV TERMINAL,COIL:HEATING:WATER,BUILDING STORY 1 THERMALZONE REHEAT COIL,BUILDING STORY 1 THERMALZONE VAV TERMINAL DAMPER OUTLET,BUILDING STORY 1 THERMALZONE VAV TERMINAL OUTLET AIR NODE,Air Nodes
 Component Set,103,AIRTERMINAL:SINGLEDUCT:VAV:REHEAT,BUILDING STORY 1 THERMALZONE 1 VAV TERMINAL,COIL:HEATING:WATER,BUILDING STORY 1 THERMALZONE 1 REHEAT COIL,BUILDING STORY 1 THERMALZONE 1 VAV TERMINAL DAMPER OUTLET,BUILDING STORY 1 THERMALZONE 1 VAV TERMINAL OUTLET AIR NODE,Air Nodes
 Component Set,104,AIRTERMINAL:SINGLEDUCT:VAV:REHEAT,BUILDING STORY 1 THERMALZONE 2 VAV TERMINAL,COIL:HEATING:WATER,BUILDING STORY 1 THERMALZONE 2 REHEAT COIL,BUILDING STORY 1 THERMALZONE 2 VAV TERMINAL DAMPER OUTLET,BUILDING STORY 1 THERMALZONE 2 VAV TERMINAL OUTLET AIR NODE,Air Nodes
 Component Set,105,AIRTERMINAL:SINGLEDUCT:VAV:REHEAT,BUILDING STORY 1 THERMALZONE 3 VAV TERMINAL,COIL:HEATING:WATER,BUILDING STORY 1 THERMALZONE 3 REHEAT COIL,BUILDING STORY 1 THERMALZONE 3 VAV TERMINAL DAMPER OUTLET,BUILDING STORY 1 THERMALZONE 3 VAV TERMINAL OUTLET AIR NODE,Air Nodes
 Component Set,106,AIRTERMINAL:SINGLEDUCT:VAV:REHEAT,BUILDING STORY 1 THERMALZONE 4 VAV TERMINAL,COIL:HEATING:WATER,BUILDING STORY 1 THERMALZONE 4 REHEAT COIL,BUILDING STORY 1 THERMALZONE 4 VAV TERMINAL DAMPER OUTLET,BUILDING STORY 1 THERMALZONE 4 VAV TERMINAL OUTLET AIR NODE,Air Nodes
 Component Set,107,AIRTERMINAL:SINGLEDUCT:VAV:REHEAT,BUILDING STORY 2 THERMALZONE VAV TERMINAL,COIL:HEATING:WATER,BUILDING STORY 2 THERMALZONE REHEAT COIL,BUILDING STORY 2 THERMALZONE VAV TERMINAL DAMPER OUTLET,BUILDING STORY 2 THERMALZONE VAV TERMINAL OUTLET AIR NODE,Air Nodes
[...]
 Non-Parent Node Connection,BUILDING STORY 3 THERMALZONE 3 REHEAT COIL INLET WATER NODE,COIL:HEATING:WATER,BUILDING STORY 3 THERMALZONE 3 REHEAT COIL,Inlet,2
 Non-Parent Node Connection,BUILDING STORY 3 THERMALZONE 3 REHEAT COIL OUTLET WATER NODE,COIL:HEATING:WATER,BUILDING STORY 3 THERMALZONE 3 REHEAT COIL,Outlet,2
 Non-Parent Node Connection,BUILDING STORY 3 THERMALZONE 3 VAV TERMINAL DAMPER OUTLET,COIL:HEATING:WATER,BUILDING STORY 3 THERMALZONE 3 REHEAT COIL,Inlet,1
 Non-Parent Node Connection,BUILDING STORY 3 THERMALZONE 3 VAV TERMINAL OUTLET AIR NODE,COIL:HEATING:WATER,BUILDING STORY 3 THERMALZONE 3 REHEAT COIL,Outlet,1
 Non-Parent Node Connection,BUILDING STORY 3 THERMALZONE 4 REHEAT COIL INLET WATER NODE,COIL:HEATING:WATER,BUILDING STORY 3 THERMALZONE 4 REHEAT COIL,Inlet,2
 Non-Parent Node Connection,BUILDING STORY 3 THERMALZONE 4 REHEAT COIL OUTLET WATER NODE,COIL:HEATING:WATER,BUILDING STORY 3 THERMALZONE 4 REHEAT COIL,Outlet,2
 Non-Parent Node Connection,BUILDING STORY 3 THERMALZONE 4 VAV TERMINAL DAMPER OUTLET,COIL:HEATING:WATER,BUILDING STORY 3 THERMALZONE 4 REHEAT COIL,Inlet,1
 Non-Parent Node Connection,BUILDING STORY 3 THERMALZONE 4 VAV TERMINAL OUTLET AIR NODE,COIL:HEATING:WATER,BUILDING STORY 3 THERMALZONE 4 REHEAT COIL,Outlet,1
 Non-Parent Node Connection,5 ZONE VAV MAIN HTG COIL INLET WATER NODE,COIL:HEATING:WATER,5 ZONE VAV MAIN HTG COIL,Inlet,2
 Non-Parent Node Connection,5 ZONE VAV MAIN HTG COIL OUTLET WATER NODE,COIL:HEATING:WATER,5 ZONE VAV MAIN HTG COIL,Outlet,2
 Non-Parent Node Connection,5 ZONE VAV CLG COIL OUTLET AIR NODE,COIL:HEATING:WATER,5 ZONE VAV MAIN HTG COIL,Inlet,1
 Non-Parent Node Connection,5 ZONE VAV MAIN HTG COIL OUTLET AIR NODE,COIL:HEATING:WATER,5 ZONE VAV MAIN HTG COIL,Outlet,1
 Non-Parent Node Connection,5 ZONE VAV 1 MAIN HTG COIL INLET WATER NODE,COIL:HEATING:WATER,5 ZONE VAV 1 MAIN HTG COIL,Inlet,2
 Non-Parent Node Connection,5 ZONE VAV 1 MAIN HTG COIL OUTLET WATER NODE,COIL:HEATING:WATER,5 ZONE VAV 1 MAIN HTG COIL,Outlet,2
 Non-Parent Node Connection,5 ZONE VAV 1 CLG COIL OUTLET AIR NODE,COIL:HEATING:WATER,5 ZONE VAV 1 MAIN HTG COIL,Inlet,1
 Non-Parent Node Connection,5 ZONE VAV 1 MAIN HTG COIL OUTLET AIR NODE,COIL:HEATING:WATER,5 ZONE VAV 1 MAIN HTG COIL,Outlet,1
 Non-Parent Node Connection,5 ZONE VAV 2 MAIN HTG COIL INLET WATER NODE,COIL:HEATING:WATER,5 ZONE VAV 2 MAIN HTG COIL,Inlet,2
 Non-Parent Node Connection,5 ZONE VAV 2 MAIN HTG COIL OUTLET WATER NODE,COIL:HEATING:WATER,5 ZONE VAV 2 MAIN HTG COIL,Outlet,2
 Non-Parent Node Connection,5 ZONE VAV 2 CLG COIL OUTLET AIR NODE,COIL:HEATING:WATER,5 ZONE VAV 2 MAIN HTG COIL,Inlet,1
 Non-Parent Node Connection,5 ZONE VAV 2 MAIN HTG COIL OUTLET AIR NODE,COIL:HEATING:WATER,5 ZONE VAV 2 MAIN HTG COIL,Outlet,1
 Non-Parent Node Connection,5 ZONE VAV CLG COIL INLET WATER NODE,COIL:COOLING:WATER,5 ZONE VAV CLG COIL,Inlet,2
 Non-Parent Node Connection,5 ZONE VAV CLG COIL OUTLET WATER NODE,COIL:COOLING:WATER,5 ZONE VAV CLG COIL,Outlet,2
 Non-Parent Node Connection,5 ZONE VAV MIXED AIR NODE,COIL:COOLING:WATER,5 ZONE VAV CLG COIL,Inlet,1
 Non-Parent Node Connection,5 ZONE VAV CLG COIL OUTLET AIR NODE,COIL:COOLING:WATER,5 ZONE VAV CLG COIL,Outlet,1
 Non-Parent Node Connection,5 ZONE VAV 1 CLG COIL INLET WATER NODE,COIL:COOLING:WATER,5 ZONE VAV 1 CLG COIL,Inlet,2
 Non-Parent Node Connection,5 ZONE VAV 1 CLG COIL OUTLET WATER NODE,COIL:COOLING:WATER,5 ZONE VAV 1 CLG COIL,Outlet,2
 Non-Parent Node Connection,5 ZONE VAV 1 MIXED AIR NODE,COIL:COOLING:WATER,5 ZONE VAV 1 CLG COIL,Inlet,1
 Non-Parent Node Connection,5 ZONE VAV 1 CLG COIL OUTLET AIR NODE,COIL:COOLING:WATER,5 ZONE VAV 1 CLG COIL,Outlet,1
 Non-Parent Node Connection,5 ZONE VAV 2 CLG COIL INLET WATER NODE,COIL:COOLING:WATER,5 ZONE VAV 2 CLG COIL,Inlet,2
 Non-Parent Node Connection,5 ZONE VAV 2 CLG COIL OUTLET WATER NODE,COIL:COOLING:WATER,5 ZONE VAV 2 CLG COIL,Outlet,2
 Non-Parent Node Connection,5 ZONE VAV 2 MIXED AIR NODE,COIL:COOLING:WATER,5 ZONE VAV 2 CLG COIL,Inlet,1
 Non-Parent Node Connection,5 ZONE VAV 2 CLG COIL OUTLET AIR NODE,COIL:COOLING:WATER,5 ZONE VAV 2 CLG COIL,Outlet,1
 Non-Parent Node Connection,BUILDING STORY 1 THERMALZONE 1 VAV TERMINAL DAMPER OUTLET,AIRTERMINAL:SINGLEDUCT:VAV:REHEAT,BUILDING STORY 1 THERMALZONE 1 VAV TERMINAL,Outlet,1
 Non-Parent Node Connection,BUILDING STORY 1 THERMALZONE 1 VAV TERMINAL INLET AIR NODE,AIRTERMINAL:SINGLEDUCT:VAV:REHEAT,BUILDING STORY 1 THERMALZONE 1 VAV TERMINAL,Inlet,1
 Non-Parent Node Connection,BUILDING STORY 1 THERMALZONE 2 VAV TERMINAL DAMPER OUTLET,AIRTERMINAL:SINGLEDUCT:VAV:REHEAT,BUILDING STORY 1 THERMALZONE 2 VAV TERMINAL,Outlet,1
 Non-Parent Node Connection,BUILDING STORY 1 THERMALZONE 2 VAV TERMINAL INLET AIR NODE,AIRTERMINAL:SINGLEDUCT:VAV:REHEAT,BUILDING STORY 1 THERMALZONE 2 VAV TERMINAL,Inlet,1
 Non-Parent Node Connection,BUILDING STORY 1 THERMALZONE 3 VAV TERMINAL DAMPER OUTLET,AIRTERMINAL:SINGLEDUCT:VAV:REHEAT,BUILDING STORY 1 THERMALZONE 3 VAV TERMINAL,Outlet,1
 Non-Parent Node Connection,BUILDING STORY 1 THERMALZONE 3 VAV TERMINAL INLET AIR NODE,AIRTERMINAL:SINGLEDUCT:VAV:REHEAT,BUILDING STORY 1 THERMALZONE 3 VAV TERMINAL,Inlet,1
 Non-Parent Node Connection,BUILDING STORY 1 THERMALZONE 4 VAV TERMINAL DAMPER OUTLET,AIRTERMINAL:SINGLEDUCT:VAV:REHEAT,BUILDING STORY 1 THERMALZONE 4 VAV TERMINAL,Outlet,1
 Non-Parent Node Connection,BUILDING STORY 1 THERMALZONE 4 VAV TERMINAL INLET AIR NODE,AIRTERMINAL:SINGLEDUCT:VAV:REHEAT,BUILDING STORY 1 THERMALZONE 4 VAV TERMINAL,Inlet,1
 Non-Parent Node Connection,BUILDING STORY 2 THERMALZONE VAV TERMINAL DAMPER OUTLET,AIRTERMINAL:SINGLEDUCT:VAV:REHEAT,BUILDING STORY 2 THERMALZONE VAV TERMINAL,Outlet,1
 Non-Parent Node Connection,BUILDING STORY 2 THERMALZONE VAV TERMINAL INLET AIR NODE,AIRTERMINAL:SINGLEDUCT:VAV:REHEAT,BUILDING STORY 2 THERMALZONE VAV TERMINAL,Inlet,1
 Non-Parent Node Connection,BUILDING STORY 2 THERMALZONE 1 VAV TERMINAL DAMPER OUTLET,AIRTERMINAL:SINGLEDUCT:VAV:REHEAT,BUILDING STORY 2 THERMALZONE 1 VAV TERMINAL,Outlet,1
 Non-Parent Node Connection,BUILDING STORY 2 THERMALZONE 1 VAV TERMINAL INLET AIR NODE,AIRTERMINAL:SINGLEDUCT:VAV:REHEAT,BUILDING STORY 2 THERMALZONE 1 VAV TERMINAL,Inlet,1
 Non-Parent Node Connection,BUILDING STORY 2 THERMALZONE 2 VAV TERMINAL DAMPER OUTLET,AIRTERMINAL:SINGLEDUCT:VAV:REHEAT,BUILDING STORY 2 THERMALZONE 2 VAV TERMINAL,Outlet,1
 Non-Parent Node Connection,BUILDING STORY 2 THERMALZONE 2 VAV TERMINAL INLET AIR NODE,AIRTERMINAL:SINGLEDUCT:VAV:REHEAT,BUILDING STORY 2 THERMALZONE 2 VAV TERMINAL,Inlet,1
 Non-Parent Node Connection,BUILDING STORY 2 THERMALZONE 3 VAV TERMINAL DAMPER OUTLET,AIRTERMINAL:SINGLEDUCT:VAV:REHEAT,BUILDING STORY 2 THERMALZONE 3 VAV TERMINAL,Outlet,1
 Non-Parent Node Connection,BUILDING STORY 2 THERMALZONE 3 VAV TERMINAL INLET AIR NODE,AIRTERMINAL:SINGLEDUCT:VAV:REHEAT,BUILDING STORY 2 THERMALZONE 3 VAV TERMINAL,Inlet,1
 Non-Parent Node Connection,BUILDING STORY 2 THERMALZONE 4 VAV TERMINAL DAMPER OUTLET,AIRTERMINAL:SINGLEDUCT:VAV:REHEAT,BUILDING STORY 2 THERMALZONE 4 VAV TERMINAL,Outlet,1
 Non-Parent Node Connection,BUILDING STORY 2 THERMALZONE 4 VAV TERMINAL INLET AIR NODE,AIRTERMINAL:SINGLEDUCT:VAV:REHEAT,BUILDING STORY 2 THERMALZONE 4 VAV TERMINAL,Inlet,1
 Non-Parent Node Connection,BUILDING STORY 3 THERMALZONE VAV TERMINAL DAMPER OUTLET,AIRTERMINAL:SINGLEDUCT:VAV:REHEAT,BUILDING STORY 3 THERMALZONE VAV TERMINAL,Outlet,1
 Non-Parent Node Connection,BUILDING STORY 3 THERMALZONE VAV TERMINAL INLET AIR NODE,AIRTERMINAL:SINGLEDUCT:VAV:REHEAT,BUILDING STORY 3 THERMALZONE VAV TERMINAL,Inlet,1
 Non-Parent Node Connection,BUILDING STORY 3 THERMALZONE 1 VAV TERMINAL DAMPER OUTLET,AIRTERMINAL:SINGLEDUCT:VAV:REHEAT,BUILDING STORY 3 THERMALZONE 1 VAV TERMINAL,Outlet,1
 Non-Parent Node Connection,BUILDING STORY 3 THERMALZONE 1 VAV TERMINAL INLET AIR NODE,AIRTERMINAL:SINGLEDUCT:VAV:REHEAT,BUILDING STORY 3 THERMALZONE 1 VAV TERMINAL,Inlet,1
 Non-Parent Node Connection,BUILDING STORY 3 THERMALZONE 2 VAV TERMINAL DAMPER OUTLET,AIRTERMINAL:SINGLEDUCT:VAV:REHEAT,BUILDING STORY 3 THERMALZONE 2 VAV TERMINAL,Outlet,1
 Non-Parent Node Connection,BUILDING STORY 3 THERMALZONE 2 VAV TERMINAL INLET AIR NODE,AIRTERMINAL:SINGLEDUCT:VAV:REHEAT,BUILDING STORY 3 THERMALZONE 2 VAV TERMINAL,Inlet,1
 Non-Parent Node Connection,BUILDING STORY 3 THERMALZONE 3 VAV TERMINAL DAMPER OUTLET,AIRTERMINAL:SINGLEDUCT:VAV:REHEAT,BUILDING STORY 3 THERMALZONE 3 VAV TERMINAL,Outlet,1
 Non-Parent Node Connection,BUILDING STORY 3 THERMALZONE 3 VAV TERMINAL INLET AIR NODE,AIRTERMINAL:SINGLEDUCT:VAV:REHEAT,BUILDING STORY 3 THERMALZONE 3 VAV TERMINAL,Inlet,1
 Non-Parent Node Connection,BUILDING STORY 3 THERMALZONE 4 VAV TERMINAL DAMPER OUTLET,AIRTERMINAL:SINGLEDUCT:VAV:REHEAT,BUILDING STORY 3 THERMALZONE 4 VAV TERMINAL,Outlet,1
 Non-Parent Node Connection,BUILDING STORY 3 THERMALZONE 4 VAV TERMINAL INLET AIR NODE,AIRTERMINAL:SINGLEDUCT:VAV:REHEAT,BUILDING STORY 3 THERMALZONE 4 VAV TERMINAL,Inlet,1
 Non-Parent Node Connection,5 ZONE VAV CLG COIL OUTLET AIR NODE,CONTROLLER:WATERCOIL,5 ZONE VAV CLG COIL CONTROLLER,Sensor,1
 Non-Parent Node Connection,5 ZONE VAV CLG COIL INLET WATER NODE,CONTROLLER:WATERCOIL,5 ZONE VAV CLG COIL CONTROLLER,Actuator,1
 Non-Parent Node Connection,5 ZONE VAV MAIN HTG COIL OUTLET AIR NODE,CONTROLLER:WATERCOIL,5 ZONE VAV MAIN HTG COIL CONTROLLER,Sensor,1
 Non-Parent Node Connection,5 ZONE VAV MAIN HTG COIL INLET WATER NODE,CONTROLLER:WATERCOIL,5 ZONE VAV MAIN HTG COIL CONTROLLER,Actuator,1
 Non-Parent Node Connection,5 ZONE VAV 1 CLG COIL OUTLET AIR NODE,CONTROLLER:WATERCOIL,5 ZONE VAV 1 CLG COIL CONTROLLER,Sensor,1
 Non-Parent Node Connection,5 ZONE VAV 1 CLG COIL INLET WATER NODE,CONTROLLER:WATERCOIL,5 ZONE VAV 1 CLG COIL CONTROLLER,Actuator,1
 Non-Parent Node Connection,5 ZONE VAV 1 MAIN HTG COIL OUTLET AIR NODE,CONTROLLER:WATERCOIL,5 ZONE VAV 1 MAIN HTG COIL CONTROLLER,Sensor,1
 Non-Parent Node Connection,5 ZONE VAV 1 MAIN HTG COIL INLET WATER NODE,CONTROLLER:WATERCOIL,5 ZONE VAV 1 MAIN HTG COIL CONTROLLER,Actuator,1
 Non-Parent Node Connection,5 ZONE VAV 2 CLG COIL OUTLET AIR NODE,CONTROLLER:WATERCOIL,5 ZONE VAV 2 CLG COIL CONTROLLER,Sensor,1
 Non-Parent Node Connection,5 ZONE VAV 2 CLG COIL INLET WATER NODE,CONTROLLER:WATERCOIL,5 ZONE VAV 2 CLG COIL CONTROLLER,Actuator,1
 Non-Parent Node Connection,5 ZONE VAV 2 MAIN HTG COIL OUTLET AIR NODE,CONTROLLER:WATERCOIL,5 ZONE VAV 2 MAIN HTG COIL CONTROLLER,Sensor,1
 Non-Parent Node Connection,5 ZONE VAV 2 MAIN HTG COIL INLET WATER NODE,CONTROLLER:WATERCOIL,5 ZONE VAV 2 MAIN HTG COIL CONTROLLER,Actuator,1
 Non-Parent Node Connection,5 ZONE VAV DEMAND OUTLET NODE,AIRLOOPHVAC:ZONEMIXER,AIR LOOP HVAC ZONE MIXER 1,Outlet,1
 Non-Parent Node Connection,BUILDING STORY 1 THERMALZONE RETURN AIR NODE,AIRLOOPHVAC:ZONEMIXER,AIR LOOP HVAC ZONE MIXER 1,Inlet,1
 Non-Parent Node Connection,BUILDING STORY 1 THERMALZONE 1 RETURN AIR NODE,AIRLOOPHVAC:ZONEMIXER,AIR LOOP HVAC ZONE MIXER 1,Inlet,1
 Non-Parent Node Connection,BUILDING STORY 1 THERMALZONE 2 RETURN AIR NODE,AIRLOOPHVAC:ZONEMIXER,AIR LOOP HVAC ZONE MIXER 1,Inlet,1
 Non-Parent Node Connection,BUILDING STORY 1 THERMALZONE 3 RETURN AIR NODE,AIRLOOPHVAC:ZONEMIXER,AIR LOOP HVAC ZONE MIXER 1,Inlet,1
 Non-Parent Node Connection,BUILDING STORY 1 THERMALZONE 4 RETURN AIR NODE,AIRLOOPHVAC:ZONEMIXER,AIR LOOP HVAC ZONE MIXER 1,Inlet,1
 Non-Parent Node Connection,5 ZONE VAV 1 DEMAND OUTLET NODE,AIRLOOPHVAC:ZONEMIXER,AIR LOOP HVAC ZONE MIXER 2,Outlet,1
 Non-Parent Node Connection,BUILDING STORY 2 THERMALZONE RETURN AIR NODE,AIRLOOPHVAC:ZONEMIXER,AIR LOOP HVAC ZONE MIXER 2,Inlet,1
 Non-Parent Node Connection,BUILDING STORY 2 THERMALZONE 1 RETURN AIR NODE,AIRLOOPHVAC:ZONEMIXER,AIR LOOP HVAC ZONE MIXER 2,Inlet,1
 Non-Parent Node Connection,BUILDING STORY 2 THERMALZONE 2 RETURN AIR NODE,AIRLOOPHVAC:ZONEMIXER,AIR LOOP HVAC ZONE MIXER 2,Inlet,1
 Non-Parent Node Connection,BUILDING STORY 2 THERMALZONE 4 RETURN AIR NODE,AIRLOOPHVAC:ZONEMIXER,AIR LOOP HVAC ZONE MIXER 2,Inlet,1
 Non-Parent Node Connection,BUILDING STORY 2 THERMALZONE 3 RETURN AIR NODE,AIRLOOPHVAC:ZONEMIXER,AIR LOOP HVAC ZONE MIXER 2,Inlet,1
 Non-Parent Node Connection,5 ZONE VAV 2 DEMAND OUTLET NODE,AIRLOOPHVAC:ZONEMIXER,AIR LOOP HVAC ZONE MIXER 3,Outlet,1
 Non-Parent Node Connection,BUILDING STORY 3 THERMALZONE RETURN AIR NODE,AIRLOOPHVAC:ZONEMIXER,AIR LOOP HVAC ZONE MIXER 3,Inlet,1
 Non-Parent Node Connection,BUILDING STORY 3 THERMALZONE 1 RETURN AIR NODE,AIRLOOPHVAC:ZONEMIXER,AIR LOOP HVAC ZONE MIXER 3,Inlet,1
 Non-Parent Node Connection,BUILDING STORY 3 THERMALZONE 2 RETURN AIR NODE,AIRLOOPHVAC:ZONEMIXER,AIR LOOP HVAC ZONE MIXER 3,Inlet,1
 Non-Parent Node Connection,BUILDING STORY 3 THERMALZONE 3 RETURN AIR NODE,AIRLOOPHVAC:ZONEMIXER,AIR LOOP HVAC ZONE MIXER 3,Inlet,1
 Non-Parent Node Connection,BUILDING STORY 3 THERMALZONE 4 RETURN AIR NODE,AIRLOOPHVAC:ZONEMIXER,AIR LOOP HVAC ZONE MIXER 3,Inlet,1
 Non-Parent Node Connection,5 ZONE VAV MIXED AIR NODE,OUTDOORAIR:MIXER,5 ZONE VAV OA SYSTEM OUTDOOR AIR MIXER,Outlet,1
 Non-Parent Node Connection,NODE 2,OUTDOORAIR:MIXER,5 ZONE VAV OA SYSTEM OUTDOOR AIR MIXER,Inlet,1
 Non-Parent Node Connection,NODE 3,OUTDOORAIR:MIXER,5 ZONE VAV OA SYSTEM OUTDOOR AIR MIXER,ReliefAir,1
 Non-Parent Node Connection,5 ZONE VAV SUPPLY INLET NODE,OUTDOORAIR:MIXER,5 ZONE VAV OA SYSTEM OUTDOOR AIR MIXER,Inlet,1
 Non-Parent Node Connection,5 ZONE VAV 1 MIXED AIR NODE,OUTDOORAIR:MIXER,5 ZONE VAV 1 OA SYSTEM OUTDOOR AIR MIXER,Outlet,1
 Non-Parent Node Connection,NODE 4,OUTDOORAIR:MIXER,5 ZONE VAV 1 OA SYSTEM OUTDOOR AIR MIXER,Inlet,1
 Non-Parent Node Connection,NODE 5,OUTDOORAIR:MIXER,5 ZONE VAV 1 OA SYSTEM OUTDOOR AIR MIXER,ReliefAir,1
 Non-Parent Node Connection,5 ZONE VAV 1 SUPPLY INLET NODE,OUTDOORAIR:MIXER,5 ZONE VAV 1 OA SYSTEM OUTDOOR AIR MIXER,Inlet,1
 Non-Parent Node Connection,5 ZONE VAV 2 MIXED AIR NODE,OUTDOORAIR:MIXER,5 ZONE VAV 2 OA SYSTEM OUTDOOR AIR MIXER,Outlet,1
 Non-Parent Node Connection,NODE 6,OUTDOORAIR:MIXER,5 ZONE VAV 2 OA SYSTEM OUTDOOR AIR MIXER,Inlet,1
 Non-Parent Node Connection,NODE 7,OUTDOORAIR:MIXER,5 ZONE VAV 2 OA SYSTEM OUTDOOR AIR MIXER,ReliefAir,1
 Non-Parent Node Connection,5 ZONE VAV 2 SUPPLY INLET NODE,OUTDOORAIR:MIXER,5 ZONE VAV 2 OA SYSTEM OUTDOOR AIR MIXER,Inlet,1
 Non-Parent Node Connection,5 ZONE VAV MAIN HTG COIL OUTLET AIR NODE,FAN:VARIABLEVOLUME,5 ZONE VAV FAN,Inlet,1
 Non-Parent Node Connection,5 ZONE VAV SUPPLY OUTLET NODE,FAN:VARIABLEVOLUME,5 ZONE VAV FAN,Outlet,1
 Non-Parent Node Connection,5 ZONE VAV 1 MAIN HTG COIL OUTLET AIR NODE,FAN:VARIABLEVOLUME,5 ZONE VAV 1 FAN,Inlet,1
 Non-Parent Node Connection,5 ZONE VAV 1 SUPPLY OUTLET NODE,FAN:VARIABLEVOLUME,5 ZONE VAV 1 FAN,Outlet,1
 Non-Parent Node Connection,5 ZONE VAV 2 MAIN HTG COIL OUTLET AIR NODE,FAN:VARIABLEVOLUME,5 ZONE VAV 2 FAN,Inlet,1
 Non-Parent Node Connection,5 ZONE VAV 2 SUPPLY OUTLET NODE,FAN:VARIABLEVOLUME,5 ZONE VAV 2 FAN,Outlet,1
 Non-Parent Node Connection,5 ZONE VAV MIXED AIR NODE,CONTROLLER:OUTDOORAIR,5 ZONE VAV OA CONTROLLER,Sensor,1
 Non-Parent Node Connection,5 ZONE VAV OUTDOOR AIR NODE,CONTROLLER:OUTDOORAIR,5 ZONE VAV OA CONTROLLER,Actuator,1
 Non-Parent Node Connection,NODE 3,CONTROLLER:OUTDOORAIR,5 ZONE VAV OA CONTROLLER,Actuator,1
 Non-Parent Node Connection,5 ZONE VAV SUPPLY INLET NODE,CONTROLLER:OUTDOORAIR,5 ZONE VAV OA CONTROLLER,Sensor,1
 Non-Parent Node Connection,5 ZONE VAV 1 MIXED AIR NODE,CONTROLLER:OUTDOORAIR,5 ZONE VAV 1 OA CONTROLLER,Sensor,1
 Non-Parent Node Connection,5 ZONE VAV 1 OUTDOOR AIR NODE,CONTROLLER:OUTDOORAIR,5 ZONE VAV 1 OA CONTROLLER,Actuator,1
 Non-Parent Node Connection,NODE 5,CONTROLLER:OUTDOORAIR,5 ZONE VAV 1 OA CONTROLLER,Actuator,1
 Non-Parent Node Connection,5 ZONE VAV 1 SUPPLY INLET NODE,CONTROLLER:OUTDOORAIR,5 ZONE VAV 1 OA CONTROLLER,Sensor,1
 Non-Parent Node Connection,5 ZONE VAV 2 MIXED AIR NODE,CONTROLLER:OUTDOORAIR,5 ZONE VAV 2 OA CONTROLLER,Sensor,1
 Non-Parent Node Connection,5 ZONE VAV 2 OUTDOOR AIR NODE,CONTROLLER:OUTDOORAIR,5 ZONE VAV 2 OA CONTROLLER,Actuator,1
 Non-Parent Node Connection,NODE 7,CONTROLLER:OUTDOORAIR,5 ZONE VAV 2 OA CONTROLLER,Actuator,1
 Non-Parent Node Connection,5 ZONE VAV 2 SUPPLY INLET NODE,CONTROLLER:OUTDOORAIR,5 ZONE VAV 2 OA CONTROLLER,Sensor,1
 Non-Parent Node Connection,5 ZONE VAV OUTDOOR AIR NODE,HEATEXCHANGER:AIRTOAIR:SENSIBLEANDLATENT,5 ZONE VAV ERV,Inlet,1
 Non-Parent Node Connection,NODE 2,HEATEXCHANGER:AIRTOAIR:SENSIBLEANDLATENT,5 ZONE VAV ERV,Outlet,1
 Non-Parent Node Connection,NODE 3,HEATEXCHANGER:AIRTOAIR:SENSIBLEANDLATENT,5 ZONE VAV ERV,Inlet,2
 Non-Parent Node Connection,5 ZONE VAV RELIEF AIR NODE,HEATEXCHANGER:AIRTOAIR:SENSIBLEANDLATENT,5 ZONE VAV ERV,Outlet,2
 Non-Parent Node Connection,5 ZONE VAV 1 OUTDOOR AIR NODE,HEATEXCHANGER:AIRTOAIR:SENSIBLEANDLATENT,5 ZONE VAV 1 ERV,Inlet,1
 Non-Parent Node Connection,NODE 4,HEATEXCHANGER:AIRTOAIR:SENSIBLEANDLATENT,5 ZONE VAV 1 ERV,Outlet,1
 Non-Parent Node Connection,NODE 5,HEATEXCHANGER:AIRTOAIR:SENSIBLEANDLATENT,5 ZONE VAV 1 ERV,Inlet,2
 Non-Parent Node Connection,5 ZONE VAV 1 RELIEF AIR NODE,HEATEXCHANGER:AIRTOAIR:SENSIBLEANDLATENT,5 ZONE VAV 1 ERV,Outlet,2
 Non-Parent Node Connection,5 ZONE VAV 2 OUTDOOR AIR NODE,HEATEXCHANGER:AIRTOAIR:SENSIBLEANDLATENT,5 ZONE VAV 2 ERV,Inlet,1
 Non-Parent Node Connection,NODE 6,HEATEXCHANGER:AIRTOAIR:SENSIBLEANDLATENT,5 ZONE VAV 2 ERV,Outlet,1
 Non-Parent Node Connection,NODE 7,HEATEXCHANGER:AIRTOAIR:SENSIBLEANDLATENT,5 ZONE VAV 2 ERV,Inlet,2
 Non-Parent Node Connection,5 ZONE VAV 2 RELIEF AIR NODE,HEATEXCHANGER:AIRTOAIR:SENSIBLEANDLATENT,5 ZONE VAV 2 ERV,Outlet,2
 Non-Parent Node Connection,CHILLED WATER LOOP SECONDARY PUMP INLET WATER NODE,PUMP:VARIABLESPEED,CHILLED WATER LOOP SECONDARY PUMP,Inlet,1
 Non-Parent Node Connection,CHILLED WATER LOOP SECONDARY PUMP OUTLET WATER NODE,PUMP:VARIABLESPEED,CHILLED WATER LOOP SECONDARY PUMP,Outlet,1
 Non-Parent Node Connection,HOT WATER LOOP SUPPLY INLET NODE,PUMP:VARIABLESPEED,HOT WATER LOOP PUMP,Inlet,1
 Non-Parent Node Connection,HOT WATER LOOP PUMP OUTLET WATER NODE,PUMP:VARIABLESPEED,HOT WATER LOOP PUMP,Outlet,1
 Non-Parent Node Connection,STRIPMALL STRIP MALL - TYPE 1 - 90.1-2013 SERVICE WATER LOOP SUPPLY INLET NODE,PUMP:VARIABLESPEED,STRIPMALL STRIP MALL - TYPE 1 - 90.1-2013 SERVICE WATER LOOP WATER MAINS PRESSURE DRIVEN,Inlet,1
 Non-Parent Node Connection,STRIPMALL STRIP MALL - TYPE 1 - 90.1-2013 SERVICE WATER LOOP WATER MAINS PRESSURE DRIVEN OUTLET WATER NODE,PUMP:VARIABLESPEED,STRIPMALL STRIP MALL - TYPE 1 - 90.1-2013 SERVICE WATER LOOP WATER MAINS PRESSURE DRIVEN,Outlet,1
 Non-Parent Node Connection,STRIPMALL STRIP MALL - TYPE 2 - 90.1-2013 SERVICE WATER LOOP SUPPLY INLET NODE,PUMP:VARIABLESPEED,STRIPMALL STRIP MALL - TYPE 2 - 90.1-2013 SERVICE WATER LOOP WATER MAINS PRESSURE DRIVEN,Inlet,1
 Non-Parent Node Connection,STRIPMALL STRIP MALL - TYPE 2 - 90.1-2013 SERVICE WATER LOOP WATER MAINS PRESSURE DRIVEN OUTLET WATER NODE,PUMP:VARIABLESPEED,STRIPMALL STRIP MALL - TYPE 2 - 90.1-2013 SERVICE WATER LOOP WATER MAINS PRESSURE DRIVEN,Outlet,1
 Non-Parent Node Connection,STRIPMALL STRIP MALL - TYPE 3 - 90.1-2013 SERVICE WATER LOOP SUPPLY INLET NODE,PUMP:VARIABLESPEED,STRIPMALL STRIP MALL - TYPE 3 - 90.1-2013 SERVICE WATER LOOP WATER MAINS PRESSURE DRIVEN,Inlet,1
 Non-Parent Node Connection,STRIPMALL STRIP MALL - TYPE 3 - 90.1-2013 SERVICE WATER LOOP WATER MAINS PRESSURE DRIVEN OUTLET WATER NODE,PUMP:VARIABLESPEED,STRIPMALL STRIP MALL - TYPE 3 - 90.1-2013 SERVICE WATER LOOP WATER MAINS PRESSURE DRIVEN,Outlet,1
 Non-Parent Node Connection,CHILLED WATER LOOP SUPPLY INLET NODE,PUMP:CONSTANTSPEED,CHILLED WATER LOOP PRIMARY PUMP,Inlet,1
 Non-Parent Node Connection,CHILLED WATER LOOP PRIMARY PUMP OUTLET WATER NODE,PUMP:CONSTANTSPEED,CHILLED WATER LOOP PRIMARY PUMP,Outlet,1
 Non-Parent Node Connection,CONDENSER WATER LOOP SUPPLY INLET NODE,PUMP:CONSTANTSPEED,CONDENSER WATER LOOP CONSTANT PUMP,Inlet,1
 Non-Parent Node Connection,CONDENSER WATER LOOP CONSTANT PUMP OUTLET WATER NODE,PUMP:CONSTANTSPEED,CONDENSER WATER LOOP CONSTANT PUMP,Outlet,1
