{
   "completed_at" : "20210417T094704Z",
   "completed_status" : "Success",
   "current_step" : 16,
   "description" : "Mall 1",
   "eplusout_err" : "Program Version,EnergyPlus, Version 9.4.0-998c4b761e, YMD=2021.04.17 02:44,\n   ** Warning ** Timestep: Requested number (1) is less than the suggested minimum of 4.\n   **   ~~~   ** Please see entry for Timestep in Input/Output Reference for discussion of considerations.\n   ************* Beginning Zone Sizing Calculations\n   ** Warning ** ProcessScheduleInput: Schedule:Day:Interval=\"33 SPACE(S) OCC SCH DEFAULT\", Blank Schedule Type Limits Name input -- will not be validated.\n   ** Warning ** ProcessScheduleInput: Schedule:Day:Interval=\"33 SPACE(S) OCC SCH FRIDAY\", Blank Schedule Type Limits Name input -- will not be validated.\n   ** Warning ** ProcessScheduleInput: Schedule:Day:Interval=\"33 SPACE(S) OCC SCH SATURDAY\", Blank Schedule Type Limits Name input -- will not be validated.\n   ** Warning ** ProcessScheduleInput: Schedule:Day:Interval=\"33 SPACE(S) OCC SCH SUMMER DESIGN DAY\", Blank Schedule Type Limits Name input -- will not be validated.\n   ** Warning ** ProcessScheduleInput: Schedule:Day:Interval=\"33 SPACE(S) OCC SCH SUNDAY\", Blank Schedule Type Limits Name input -- will not be validated.\n   ** Warning ** ProcessScheduleInput: Schedule:Day:Interval=\"33 SPACE(S) OCC SCH WINTER DESIGN DAY\", Blank Schedule Type Limits Name input -- will not be validated.\n   ** Warning ** ProcessScheduleInput: Schedule:Day:Interval=\"ECONOMIZER MAX OA FRACTION 70 PCT DEFAULT\", Blank Schedule Type Limits Name input -- will not be validated.\n   ** Warning ** ProcessScheduleInput: Schedule:Day:Interval=\"SCHEDULE DAY 1\", Blank Schedule Type Limits Name input -- will not be validated.\n   ** Warning ** ProcessScheduleInput: Schedule:Day:Interval=\"SCHEDULE DAY 2\", Blank Schedule Type Limits Name input -- will not be validated.\n   ** Warning ** ProcessScheduleInput: Schedule:Day:Interval=\"SCHEDULE DAY 3\", Blank Schedule Type Limits Name input -- will not be validated.\n   ** Warning ** ProcessScheduleInput: Schedule:Day:Interval=\"SCHEDULE DAY 4\", Blank Schedule Type Limits Name input -- will not be validated.\n   ** Warning ** ProcessScheduleInput: Schedule:Day:Interval=\"SCHEDULE DAY 5\", Blank Schedule Type Limits Name input -- will not be validated.\n   ** Warning ** ProcessScheduleInput: Schedule:Day:Interval=\"SCHEDULE DAY 6\", Blank Schedule Type Limits Name input -- will not be validated.\n   ** Warning ** ProcessScheduleInput: Schedule:Year=\"ECONOMIZER MAX OA FRACTION 70 PCT\", Blank Schedule Type Limits Name input -- will not be validated.\n   ** Warning ** ProcessScheduleInput: Schedule:Year=\"ELEVATOR SCHEDULE\", Blank Schedule Type Limits Name input -- will not be validated.\n   ** Warning ** ProcessScheduleInput: Schedule:Constant=\"ALWAYS OFF DISCRETE\", Blank Schedule Type Limits Name input -- will not be validated.\n   ** Warning ** ProcessScheduleInput: Schedule:Constant=\"ALWAYS ON CONTINUOUS\", Blank Schedule Type Limits Name input -- will not be validated.\n   ** Warning ** GetHTSurfaceData: Surfaces with interface to Ground found but no \"Ground Temperatures\" were input.\n   **   ~~~   ** Found first in surface=SURFACE 1\n   **   ~~~   ** Defaults, constant throughout the year of (18.0) will be used.\n   ** Warning ** CheckUsedConstructions: There are 10 nominally unused constructions in input.\n   **   ~~~   ** For explicit details on each unused construction, use Output:Diagnostics,DisplayExtraWarnings;\n   ** Warning ** Seems like you already tried to get a Handle on this Actuator 1times.\n   **   ~~~   ** Occurred for componentType='SCHEDULE:YEAR', controlType='SCHEDULE VALUE', uniqueKey='RETAILSTRIPMALL TYPE3_CLGSETP_SCH_NO_OPTIMUM'.\n   **   ~~~   ** You should take note that there is a risk of overwritting.\n   ** Warning ** Seems like you already tried to get a Handle on this Actuator 1times.\n   **   ~~~   ** Occurred for componentType='SCHEDULE:YEAR', controlType='SCHEDULE VALUE', uniqueKey='RETAILSTRIPMALL TYPE3_HTGSETP_SCH_NO_OPTIMUM'.\n   **   ~~~   ** You should take note that there is a risk of overwritting.\n   ** Warning ** DetermineShadowingCombinations: There are 2 surfaces which are receiving surfaces and are non-convex.\n   **   ~~~   ** ...Shadowing values may be inaccurate. Check .shd report file for more surface shading details\n   **   ~~~   ** ...Add Output:Diagnostics,DisplayExtraWarnings; to see individual warnings for each surface.\n   ** Warning ** GetSimpleAirModelInputs: ZoneInfiltration:DesignFlowRate=\"BUILDING STORY 1 THERMALZONE STRIPMALL STRIP MALL - TYPE 1 A  - STORY GROUND INFILTRATION\", Design Flow Rate Calculation Method specifies Flow per Exterior Surface Area, but Exterior Surface Area = 0.  0 Infiltration will result.\n   ** Warning ** GetSimpleAirModelInputs: ZoneInfiltration:DesignFlowRate=\"BUILDING STORY 1 THERMALZONE STRIPMALL STRIP MALL - TYPE 1 A END_A - STORY GROUND INFILTRATION\", Design Flow Rate Calculation Method specifies Flow per Exterior Surface Area, but Exterior Surface Area = 0.  0 Infiltration will result.\n   ** Warning ** GetSimpleAirModelInputs: ZoneInfiltration:DesignFlowRate=\"BUILDING STORY 1 THERMALZONE STRIPMALL STRIP MALL - TYPE 1 B END_A - STORY GROUND INFILTRATION\", Design Flow Rate Calculation Method specifies Flow per Exterior Surface Area, but Exterior Surface Area = 0.  0 Infiltration will result.\n   ** Warning ** GetSimpleAirModelInputs: ZoneInfiltration:DesignFlowRate=\"BUILDING STORY 1 THERMALZONE STRIPMALL STRIP MALL - TYPE 1 C  - STORY GROUND INFILTRATION\", Design Flow Rate Calculation Method specifies Flow per Exterior Surface Area, but Exterior Surface Area = 0.  0 Infiltration will result.\n   ** Warning ** GetSimpleAirModelInputs: ZoneInfiltration:DesignFlowRate=\"BUILDING STORY 1 THERMALZONE STRIPMALL STRIP MALL - TYPE 1 C END_A - STORY GROUND INFILTRATION\", Design Flow Rate Calculation Method specifies Flow per Exterior Surface Area, but Exterior Surface Area = 0.  0 Infiltration will result.\n   ** Warning ** GetSimpleAirModelInputs: ZoneInfiltration:DesignFlowRate=\"BUILDING STORY 1 THERMALZONE STRIPMALL STRIP MALL - TYPE 2 A  - STORY GROUND INFILTRATION\", Design Flow Rate Calculation Method specifies Flow per Exterior Surface Area, but Exterior Surface Area = 0.  0 Infiltration will result.\n   ** Warning ** GetSimpleAirModelInputs: ZoneInfiltration:DesignFlowRate=\"BUILDING STORY 1 THERMALZONE STRIPMALL STRIP MALL - TYPE 2 A END_B - STORY GROUND INFILTRATION\", Design Flow Rate Calculation Method specifies Flow per Exterior Surface Area, but Exterior Surface Area = 0.  0 Infiltration will result.\n   ** Warning ** GetSimpleAirModelInputs: ZoneInfiltration:DesignFlowRate=\"BUILDING STORY 1 THERMALZONE STRIPMALL STRIP MALL - TYPE 2 B END_B - STORY GROUND INFILTRATION\", Design Flow Rate Calculation Method specifies Flow per Exterior Surface Area, but Exterior Surface Area = 0.  0 Infiltration will result.\n   ** Warning ** GetSimpleAirModelInputs: ZoneInfiltration:DesignFlowRate=\"BUILDING STORY 1 THERMALZONE STRIPMALL STRIP MALL - TYPE 2 C  - STORY GROUND INFILTRATION\", Design Flow Rate Calculation Method specifies Flow per Exterior Surface Area, but Exterior Surface Area = 0.  0 Infiltration will result.\n   ** Warning ** GetSimpleAirModelInputs: ZoneInfiltration:DesignFlowRate=\"BUILDING STORY 1 THERMALZONE STRIPMALL STRIP MALL - TYPE 2 C END_B - STORY GROUND INFILTRATION\", Design Flow Rate Calculation Method specifies Flow per Exterior Surface Area, but Exterior Surface Area = 0.  0 Infiltration will result.\n   ** Warning ** GetSimpleAirModelInputs: ZoneInfiltration:DesignFlowRate=\"BUILDING STORY 2 THERMALZONE STRIPMALL STRIP MALL - TYPE 2 A  - STORY MID INFILTRATION\", Design Flow Rate Calculation Method specifies Flow per Exterior Surface Area, but Exterior Surface Area = 0.  0 Infiltration will result.\n   ** Warning ** GetSimpleAirModelInputs: ZoneInfiltration:DesignFlowRate=\"BUILDING STORY 2 THERMALZONE STRIPMALL STRIP MALL - TYPE 2 A END_B - STORY MID INFILTRATION\", Design Flow Rate Calculation Method specifies Flow per Exterior Surface Area, but Exterior Surface Area = 0.  0 Infiltration will result.\n   ** Warning ** GetSimpleAirModelInputs: ZoneInfiltration:DesignFlowRate=\"BUILDING STORY 2 THERMALZONE STRIPMALL STRIP MALL - TYPE 2 B END_B - STORY MID INFILTRATION\", Design Flow Rate Calculation Method specifies Flow per Exterior Surface Area, but Exterior Surface Area = 0.  0 Infiltration will result.\n   ** Warning ** GetSimpleAirModelInputs: ZoneInfiltration:DesignFlowRate=\"BUILDING STORY 2 THERMALZONE STRIPMALL STRIP MALL - TYPE 2 C  - STORY MID INFILTRATION\", Design Flow Rate Calculation Method specifies Flow per Exterior Surface Area, but Exterior Surface Area = 0.  0 Infiltration will result.\n   ** Warning ** GetSimpleAirModelInputs: ZoneInfiltration:DesignFlowRate=\"BUILDING STORY 2 THERMALZONE STRIPMALL STRIP MALL - TYPE 2 C END_B - STORY MID INFILTRATION\", Design Flow Rate Calculation Method specifies Flow per Exterior Surface Area, but Exterior Surface Area = 0.  0 Infiltration will result.\n   ** Warning ** GetSimpleAirModelInputs: ZoneInfiltration:DesignFlowRate=\"BUILDING STORY 2 THERMALZONE STRIPMALL STRIP MALL - TYPE 3 A  - STORY MID INFILTRATION\", Design Flow Rate Calculation Method specifies Flow per Exterior Surface Area, but Exterior Surface Area = 0.  0 Infiltration will result.\n   ** Warning ** GetSimpleAirModelInputs: ZoneInfiltration:DesignFlowRate=\"BUILDING STORY 2 THERMALZONE STRIPMALL STRIP MALL - TYPE 3 A END_A - STORY MID INFILTRATION\", Design Flow Rate Calculation Method specifies Flow per Exterior Surface Area, but Exterior Surface Area = 0.  0 Infiltration will result.\n   ** Warning ** GetSimpleAirModelInputs: ZoneInfiltration:DesignFlowRate=\"BUILDING STORY 2 THERMALZONE STRIPMALL STRIP MALL - TYPE 3 B END_A - STORY MID INFILTRATION\", Design Flow Rate Calculation Method specifies Flow per Exterior Surface Area, but Exterior Surface Area = 0.  0 Infiltration will result.\n   ** Warning ** GetSimpleAirModelInputs: ZoneInfiltration:DesignFlowRate=\"BUILDING STORY 2 THERMALZONE STRIPMALL STRIP MALL - TYPE 3 C  - STORY MID INFILTRATION\", Design Flow Rate Calculation Method specifies Flow per Exterior Surface Area, but Exterior Surface Area = 0.  0 Infiltration will result.\n   ** Warning ** GetSimpleAirModelInputs: ZoneInfiltration:DesignFlowRate=\"BUILDING STORY 2 THERMALZONE STRIPMALL STRIP MALL - TYPE 3 C END_A - STORY MID INFILTRATION\", Design Flow Rate Calculation Method specifies Flow per Exterior Surface Area, but Exterior Surface Area = 0.  0 Infiltration will result.\n   ** Warning ** GetElectricEIRChillerInput: Chiller:Electric:EIR=\"90.1-2013 WATERCOOLED  ROTARY SCREW CHILLER 0 960TONS 0.6KW/TON\"\n   **   ~~~   ** Energy input ratio as a function of temperature curve output is not equal to 1.0 (+ or - 10%) at reference conditions.\n   **   ~~~   ** Curve output at reference conditions = 1.205\n   ** Warning ** Calculated design heating load for zone=BUILDING STORY 2 THERMALZONE is zero.\n   **   ~~~   ** Check Sizing:Zone and ZoneControl:Thermostat inputs.\n   ************* Beginning System Sizing Calculations\n   ** Warning ** Since Zone Minimum Air Flow Input Method = CONSTANT, input for Fixed Minimum Air Flow Rate will be ignored.\n   **   ~~~   ** Occurs in AirTerminal:SingleDuct:VAV:Reheat = BUILDING STORY 1 THERMALZONE VAV TERMINAL\n   ** Warning ** Since Zone Minimum Air Flow Input Method = CONSTANT, input for Fixed Minimum Air Flow Rate will be ignored.\n   **   ~~~   ** Occurs in AirTerminal:SingleDuct:VAV:Reheat = BUILDING STORY 1 THERMALZONE 1 VAV TERMINAL\n   ** Warning ** Since Zone Minimum Air Flow Input Method = CONSTANT, input for Fixed Minimum Air Flow Rate will be ignored.\n   **   ~~~   ** Occurs in AirTerminal:SingleDuct:VAV:Reheat = BUILDING STORY 1 THERMALZONE 2 VAV TERMINAL\n   ** Warning ** Since Zone Minimum Air Flow Input Method = CONSTANT, input for Fixed Minimum Air Flow Rate will be ignored.\n   **   ~~~   ** Occurs in AirTerminal:SingleDuct:VAV:Reheat = BUILDING STORY 1 THERMALZONE 3 VAV TERMINAL\n   ** Warning ** Since Zone Minimum Air Flow Input Method = CONSTANT, input for Fixed Minimum Air Flow Rate will be ignored.\n   **   ~~~   ** Occurs in AirTerminal:SingleDuct:VAV:Reheat = BUILDING STORY 1 THERMALZONE 4 VAV TERMINAL\n   ** Warning ** Since Zone Minimum Air Flow Input Method = CONSTANT, input for Fixed Minimum Air Flow Rate will be ignored.\n   **   ~~~   ** Occurs in AirTerminal:SingleDuct:VAV:Reheat = BUILDING STORY 2 THERMALZONE VAV TERMINAL\n   ** Warning ** Since Zone Minimum Air Flow Input Method = CONSTANT, input for Fixed Minimum Air Flow Rate will be ignored.\n   **   ~~~   ** Occurs in AirTerminal:SingleDuct:VAV:Reheat = BUILDING STORY 2 THERMALZONE 1 VAV TERMINAL\n   ** Warning ** Since Zone Minimum Air Flow Input Method = CONSTANT, input for Fixed Minimum Air Flow Rate will be ignored.\n   **   ~~~   ** Occurs in AirTerminal:SingleDuct:VAV:Reheat = BUILDING STORY 2 THERMALZONE 2 VAV TERMINAL\n   ** Warning ** Since Zone Minimum Air Flow Input Method = CONSTANT, input for Fixed Minimum Air Flow Rate will be ignored.\n   **   ~~~   ** Occurs in AirTerminal:SingleDuct:VAV:Reheat = BUILDING STORY 2 THERMALZONE 3 VAV TERMINAL\n   ** Warning ** Since Zone Minimum Air Flow Input Method = CONSTANT, input for Fixed Minimum Air Flow Rate will be ignored.\n   **   ~~~   ** Occurs in AirTerminal:SingleDuct:VAV:Reheat = BUILDING STORY 2 THERMALZONE 4 VAV TERMINAL\n   ** Warning ** Since Zone Minimum Air Flow Input Method = CONSTANT, input for Fixed Minimum Air Flow Rate will be ignored.\n   **   ~~~   ** Occurs in AirTerminal:SingleDuct:VAV:Reheat = BUILDING STORY 3 THERMALZONE VAV TERMINAL\n   ** Warning ** Since Zone Minimum Air Flow Input Method = CONSTANT, input for Fixed Minimum Air Flow Rate will be ignored.\n   **   ~~~   ** Occurs in AirTerminal:SingleDuct:VAV:Reheat = BUILDING STORY 3 THERMALZONE 1 VAV TERMINAL\n   ** Warning ** Since Zone Minimum Air Flow Input Method = CONSTANT, input for Fixed Minimum Air Flow Rate will be ignored.\n   **   ~~~   ** Occurs in AirTerminal:SingleDuct:VAV:Reheat = BUILDING STORY 3 THERMALZONE 2 VAV TERMINAL\n   ** Warning ** Since Zone Minimum Air Flow Input Method = CONSTANT, input for Fixed Minimum Air Flow Rate will be ignored.\n   **   ~~~   ** Occurs in AirTerminal:SingleDuct:VAV:Reheat = BUILDING STORY 3 THERMALZONE 3 VAV TERMINAL\n   ** Warning ** Since Zone Minimum Air Flow Input Method = CONSTANT, input for Fixed Minimum Air Flow Rate will be ignored.\n   **   ~~~   ** Occurs in AirTerminal:SingleDuct:VAV:Reheat = BUILDING STORY 3 THERMALZONE 4 VAV TERMINAL\n   ************* Beginning Plant Sizing Calculations\n   ** Warning ** GetOAControllerInputs: Controller:MechanicalVentilation=\"5 ZONE VAV VENT CONTROLLER\n   **   ~~~   ** Cannot locate a matching DesignSpecification:ZoneAirDistribution object for Zone=\"BUILDING STORY 1 THERMALZONE\".\n   **   ~~~   ** Using default zone air distribution effectiveness of 1.0 for heating and cooling.\n   ** Warning ** GetOAControllerInputs: Controller:MechanicalVentilation=\"5 ZONE VAV VENT CONTROLLER\n   **   ~~~   ** Cannot locate a matching DesignSpecification:ZoneAirDistribution object for Zone=\"BUILDING STORY 1 THERMALZONE 1\".\n   **   ~~~   ** Using default zone air distribution effectiveness of 1.0 for heating and cooling.\n   ** Warning ** GetOAControllerInputs: Controller:MechanicalVentilation=\"5 ZONE VAV VENT CONTROLLER\n   **   ~~~   ** Cannot locate a matching DesignSpecification:ZoneAirDistribution object for Zone=\"BUILDING STORY 1 THERMALZONE 2\".\n   **   ~~~   ** Using default zone air distribution effectiveness of 1.0 for heating and cooling.\n   ** Warning ** GetOAControllerInputs: Controller:MechanicalVentilation=\"5 ZONE VAV VENT CONTROLLER\n   **   ~~~   ** Cannot locate a matching DesignSpecification:ZoneAirDistribution object for Zone=\"BUILDING STORY 1 THERMALZONE 3\".\n   **   ~~~   ** Using default zone air distribution effectiveness of 1.0 for heating and cooling.\n   ** Warning ** GetOAControllerInputs: Controller:MechanicalVentilation=\"5 ZONE VAV VENT CONTROLLER\n   **   ~~~   ** Cannot locate a matching DesignSpecification:ZoneAirDistribution object for Zone=\"BUILDING STORY 1 THERMALZONE 4\".\n   **   ~~~   ** Using default zone air distribution effectiveness of 1.0 for heating and cooling.\n   ** Warning ** GetOAControllerInputs: Controller:MechanicalVentilation=\"5 ZONE VAV 1 VENT CONTROLLER\n   **   ~~~   ** Cannot locate a matching DesignSpecification:ZoneAirDistribution object for Zone=\"BUILDING STORY 2 THERMALZONE\".\n   **   ~~~   ** Using default zone air distribution effectiveness of 1.0 for heating and cooling.\n   ** Warning ** GetOAControllerInputs: Controller:MechanicalVentilation=\"5 ZONE VAV 1 VENT CONTROLLER\n   **   ~~~   ** Cannot locate a matching DesignSpecification:ZoneAirDistribution object for Zone=\"BUILDING STORY 2 THERMALZONE 1\".\n   **   ~~~   ** Using default zone air distribution effectiveness of 1.0 for heating and cooling.\n   ** Warning ** GetOAControllerInputs: Controller:MechanicalVentilation=\"5 ZONE VAV 1 VENT CONTROLLER\n   **   ~~~   ** Cannot locate a matching DesignSpecification:ZoneAirDistribution object for Zone=\"BUILDING STORY 2 THERMALZONE 2\".\n   **   ~~~   ** Using default zone air distribution effectiveness of 1.0 for heating and cooling.\n   ** Warning ** GetOAControllerInputs: Controller:MechanicalVentilation=\"5 ZONE VAV 1 VENT CONTROLLER\n   **   ~~~   ** Cannot locate a matching DesignSpecification:ZoneAirDistribution object for Zone=\"BUILDING STORY 2 THERMALZONE 3\".\n   **   ~~~   ** Using default zone air distribution effectiveness of 1.0 for heating and cooling.\n   ** Warning ** GetOAControllerInputs: Controller:MechanicalVentilation=\"5 ZONE VAV 1 VENT CONTROLLER\n   **   ~~~   ** Cannot locate a matching DesignSpecification:ZoneAirDistribution object for Zone=\"BUILDING STORY 2 THERMALZONE 4\".\n   **   ~~~   ** Using default zone air distribution effectiveness of 1.0 for heating and cooling.\n   ** Warning ** GetOAControllerInputs: Controller:MechanicalVentilation=\"5 ZONE VAV 2 VENT CONTROLLER\n   **   ~~~   ** Cannot locate a matching DesignSpecification:ZoneAirDistribution object for Zone=\"BUILDING STORY 3 THERMALZONE\".\n   **   ~~~   ** Using default zone air distribution effectiveness of 1.0 for heating and cooling.\n   ** Warning ** GetOAControllerInputs: Controller:MechanicalVentilation=\"5 ZONE VAV 2 VENT CONTROLLER\n   **   ~~~   ** Cannot locate a matching DesignSpecification:ZoneAirDistribution object for Zone=\"BUILDING STORY 3 THERMALZONE 1\".\n   **   ~~~   ** Using default zone air distribution effectiveness of 1.0 for heating and cooling.\n   ** Warning ** GetOAControllerInputs: Controller:MechanicalVentilation=\"5 ZONE VAV 2 VENT CONTROLLER\n   **   ~~~   ** Cannot locate a matching DesignSpecification:ZoneAirDistribution object for Zone=\"BUILDING STORY 3 THERMALZONE 2\".\n   **   ~~~   ** Using default zone air distribution effectiveness of 1.0 for heating and cooling.\n   ** Warning ** GetOAControllerInputs: Controller:MechanicalVentilation=\"5 ZONE VAV 2 VENT CONTROLLER\n   **   ~~~   ** Cannot locate a matching DesignSpecification:ZoneAirDistribution object for Zone=\"BUILDING STORY 3 THERMALZONE 3\".\n   **   ~~~   ** Using default zone air distribution effectiveness of 1.0 for heating and cooling.\n   ** Warning ** GetOAControllerInputs: Controller:MechanicalVentilation=\"5 ZONE VAV 2 VENT CONTROLLER\n   **   ~~~   ** Cannot locate a matching DesignSpecification:ZoneAirDistribution object for Zone=\"BUILDING STORY 3 THERMALZONE 4\".\n   **   ~~~   ** Using default zone air distribution effectiveness of 1.0 for heating and cooling.\n   ** Warning ** In calculating the design coil UA for Coil:Cooling:Water 5 ZONE VAV CLG COIL\n   **   ~~~   ** the coil bypass factor is unrealistically large;\n   **   ~~~   ** The initial design conditions are: Tair,in = 30.3000\n   **   ~~~   **                                    Wair,in = 1.336696E-002\n   **   ~~~   **                                    Twater,in = 6.6667\n   **   ~~~   **                                    Tair,out = 10.9235\n   **   ~~~   **                                    Wair,out = 8.500000E-003\n   ** Warning ** In calculating the design coil UA for Coil:Cooling:Water 5 ZONE VAV 1 CLG COIL\n   **   ~~~   ** the coil bypass factor is unrealistically large;\n   **   ~~~   ** The initial design conditions are: Tair,in = 25.1680\n   **   ~~~   **                                    Wair,in = 1.150321E-002\n   **   ~~~   **                                    Twater,in = 6.6667\n   **   ~~~   **                                    Tair,out = 10.9327\n   **   ~~~   **                                    Wair,out = 8.500000E-003\n   ** Warning ** In calculating the design coil UA for Coil:Cooling:Water 5 ZONE VAV 2 CLG COIL\n   **   ~~~   ** the coil bypass factor is unrealistically large;\n   **   ~~~   ** The initial design conditions are: Tair,in = 25.1787\n   **   ~~~   **                                    Wair,in = 1.150549E-002\n   **   ~~~   **                                    Twater,in = 6.6667\n   **   ~~~   **                                    Tair,out = 10.9327\n   **   ~~~   **                                    Wair,out = 8.500000E-003\n   ** Warning ** Water heater = 42X 50GAL NATURALGAS WATER HEATER - 20KBTU/HR 0.82 THERM EFF:  Recovery Efficiency and Energy Factor could not be calculated during the test for standard ratings\n   **   ~~~   ** Setpoint was never recovered and/or heater never turned on\n   ** Warning ** Water heater = 42X 50GAL NATURALGAS WATER HEATER - 20KBTU/HR 1 0.82 THERM EFF:  Recovery Efficiency and Energy Factor could not be calculated during the test for standard ratings\n   **   ~~~   ** Setpoint was never recovered and/or heater never turned on\n   ** Warning ** Water heater = 83X 50GAL NATURALGAS WATER HEATER - 20KBTU/HR 0.82 THERM EFF:  Recovery Efficiency and Energy Factor could not be calculated during the test for standard ratings\n   **   ~~~   ** Setpoint was never recovered and/or heater never turned on\n   ** Warning ** Meter:Custom=\"HEATREJECTION:OTHERFUELS\", invalid Output Variable or Meter Name=\"HEATREJECTION:GASOLINE\".\n   **   ~~~   ** ...will not be shown with the Meter results.\n   ** Warning ** Meter:Custom=\"HEATREJECTION:OTHERFUELS\", invalid Output Variable or Meter Name=\"HEATREJECTION:DIESEL\".\n   **   ~~~   ** ...will not be shown with the Meter results.\n   ** Warning ** Meter:Custom=\"HEATREJECTION:OTHERFUELS\", invalid Output Variable or Meter Name=\"HEATREJECTION:COAL\".\n   **   ~~~   ** ...will not be shown with the Meter results.\n   ** Warning ** Meter:Custom=\"HEATREJECTION:OTHERFUELS\", invalid Output Variable or Meter Name=\"HEATREJECTION:FUELOILNO1\".\n   **   ~~~   ** ...will not be shown with the Meter results.\n   ** Warning ** Meter:Custom=\"HEATREJECTION:OTHERFUELS\", invalid Output Variable or Meter Name=\"HEATREJECTION:OTHERFUEL1\".\n   **   ~~~   ** ...will not be shown with the Meter results.\n   ** Warning ** Meter:Custom=\"HEATREJECTION:OTHERFUELS\", invalid Output Variable or Meter Name=\"HEATREJECTION:STEAM\".\n   **   ~~~   ** ...will not be shown with the Meter results.\n   ** Warning ** Meter:Custom=\"HEATREJECTION:OTHERFUELS\", no items assigned \n   **   ~~~   ** ...will not be shown with the Meter results. This may be caused by a Meter:Custom be assigned to another Meter:Custom.\n   ** Warning ** Meter:Custom=\"HEATING:OTHERFUELS\", invalid Output Variable or Meter Name=\"HEATING:GASOLINE\".\n   **   ~~~   ** ...will not be shown with the Meter results.\n   ** Warning ** Meter:Custom=\"HEATING:OTHERFUELS\", invalid Output Variable or Meter Name=\"HEATING:DIESEL\".\n   **   ~~~   ** ...will not be shown with the Meter results.\n   ** Warning ** Meter:Custom=\"HEATING:OTHERFUELS\", invalid Output Variable or Meter Name=\"HEATING:COAL\".\n   **   ~~~   ** ...will not be shown with the Meter results.\n   ** Warning ** Meter:Custom=\"HEATING:OTHERFUELS\", invalid Output Variable or Meter Name=\"HEATING:FUELOILNO1\".\n   **   ~~~   ** ...will not be shown with the Meter results.\n   ** Warning ** Meter:Custom=\"HEATING:OTHERFUELS\", invalid Output Variable or Meter Name=\"HEATING:OTHERFUEL1\".\n   **   ~~~   ** ...will not be shown with the Meter results.\n   ** Warning ** Meter:Custom=\"HEATING:OTHERFUELS\", invalid Output Variable or Meter Name=\"HEATING:STEAM\".\n   **   ~~~   ** ...will not be shown with the Meter results.\n   ** Warning ** Meter:Custom=\"HEATING:OTHERFUELS\", no items assigned \n   **   ~~~   ** ...will not be shown with the Meter results. This may be caused by a Meter:Custom be assigned to another Meter:Custom.\n   ** Warning ** Meter:Custom=\"WATERSYSTEMS:OTHERFUELS\", invalid Output Variable or Meter Name=\"WATERSYSTEMS:GASOLINE\".\n   **   ~~~   ** ...will not be shown with the Meter results.\n   ** Warning ** Meter:Custom=\"WATERSYSTEMS:OTHERFUELS\", invalid Output Variable or Meter Name=\"WATERSYSTEMS:DIESEL\".\n   **   ~~~   ** ...will not be shown with the Meter results.\n   ** Warning ** Meter:Custom=\"WATERSYSTEMS:OTHERFUELS\", invalid Output Variable or Meter Name=\"WATERSYSTEMS:COAL\".\n   **   ~~~   ** ...will not be shown with the Meter results.\n   ** Warning ** Meter:Custom=\"WATERSYSTEMS:OTHERFUELS\", invalid Output Variable or Meter Name=\"WATERSYSTEMS:FUELOILNO1\".\n   **   ~~~   ** ...will not be shown with the Meter results.\n   ** Warning ** Meter:Custom=\"WATERSYSTEMS:OTHERFUELS\", invalid Output Variable or Meter Name=\"WATERSYSTEMS:OTHERFUEL1\".\n   **   ~~~   ** ...will not be shown with the Meter results.\n   ** Warning ** Meter:Custom=\"WATERSYSTEMS:OTHERFUELS\", invalid Output Variable or Meter Name=\"WATERSYSTEMS:STEAM\".\n   **   ~~~   ** ...will not be shown with the Meter results.\n   ** Warning ** Meter:Custom=\"WATERSYSTEMS:OTHERFUELS\", no items assigned \n   **   ~~~   ** ...will not be shown with the Meter results. This may be caused by a Meter:Custom be assigned to another Meter:Custom.\n   ** Warning ** Meter:Custom=\"INTERIOREQUIPMENT:OTHERFUELS\", invalid Output Variable or Meter Name=\"INTERIOREQUIPMENT:GASOLINE\".\n   **   ~~~   ** ...will not be shown with the Meter results.\n   ** Warning ** Meter:Custom=\"INTERIOREQUIPMENT:OTHERFUELS\", invalid Output Variable or Meter Name=\"INTERIOREQUIPMENT:DIESEL\".\n   **   ~~~   ** ...will not be shown with the Meter results.\n   ** Warning ** Meter:Custom=\"INTERIOREQUIPMENT:OTHERFUELS\", invalid Output Variable or Meter Name=\"INTERIOREQUIPMENT:COAL\".\n   **   ~~~   ** ...will not be shown with the Meter results.\n   ** Warning ** Meter:Custom=\"INTERIOREQUIPMENT:OTHERFUELS\", invalid Output Variable or Meter Name=\"INTERIOREQUIPMENT:FUELOILNO1\".\n   **   ~~~   ** ...will not be shown with the Meter results.\n   ** Warning ** Meter:Custom=\"INTERIOREQUIPMENT:OTHERFUELS\", invalid Output Variable or Meter Name=\"INTERIOREQUIPMENT:OTHERFUEL1\".\n   **   ~~~   ** ...will not be shown with the Meter results.\n   ** Warning ** Meter:Custom=\"INTERIOREQUIPMENT:OTHERFUELS\", invalid Output Variable or Meter Name=\"INTERIOREQUIPMENT:STEAM\".\n   **   ~~~   ** ...will not be shown with the Meter results.\n   ** Warning ** Meter:Custom=\"INTERIOREQUIPMENT:OTHERFUELS\", no items assigned \n   **   ~~~   ** ...will not be shown with the Meter results. This may be caused by a Meter:Custom be assigned to another Meter:Custom.\n   ** Warning ** Meter:Custom=\"OTHERFUELS:FACILITY\", invalid Output Variable or Meter Name=\"HEATREJECTION:GASOLINE\".\n   **   ~~~   ** ...will not be shown with the Meter results.\n   ** Warning ** Meter:Custom=\"OTHERFUELS:FACILITY\", invalid Output Variable or Meter Name=\"HEATREJECTION:DIESEL\".\n   **   ~~~   ** ...will not be shown with the Meter results.\n   ** Warning ** Meter:Custom=\"OTHERFUELS:FACILITY\", invalid Output Variable or Meter Name=\"HEATREJECTION:COAL\".\n   **   ~~~   ** ...will not be shown with the Meter results.\n   ** Warning ** Meter:Custom=\"OTHERFUELS:FACILITY\", invalid Output Variable or Meter Name=\"HEATREJECTION:FUELOILNO1\".\n   **   ~~~   ** ...will not be shown with the Meter results.\n   ** Warning ** Meter:Custom=\"OTHERFUELS:FACILITY\", invalid Output Variable or Meter Name=\"HEATREJECTION:OTHERFUEL1\".\n   **   ~~~   ** ...will not be shown with the Meter results.\n   ** Warning ** Meter:Custom=\"OTHERFUELS:FACILITY\", invalid Output Variable or Meter Name=\"HEATREJECTION:STEAM\".\n   **   ~~~   ** ...will not be shown with the Meter results.\n   ** Warning ** Meter:Custom=\"OTHERFUELS:FACILITY\", invalid Output Variable or Meter Name=\"HEATING:GASOLINE\".\n   **   ~~~   ** ...will not be shown with the Meter results.\n   ** Warning ** Meter:Custom=\"OTHERFUELS:FACILITY\", invalid Output Variable or Meter Name=\"HEATING:DIESEL\".\n   **   ~~~   ** ...will not be shown with the Meter results.\n   ** Warning ** Meter:Custom=\"OTHERFUELS:FACILITY\", invalid Output Variable or Meter Name=\"HEATING:COAL\".\n   **   ~~~   ** ...will not be shown with the Meter results.\n   ** Warning ** Meter:Custom=\"OTHERFUELS:FACILITY\", invalid Output Variable or Meter Name=\"HEATING:FUELOILNO1\".\n   **   ~~~   ** ...will not be shown with the Meter results.\n   ** Warning ** Meter:Custom=\"OTHERFUELS:FACILITY\", invalid Output Variable or Meter Name=\"HEATING:OTHERFUEL1\".\n   **   ~~~   ** ...will not be shown with the Meter results.\n   ** Warning ** Meter:Custom=\"OTHERFUELS:FACILITY\", invalid Output Variable or Meter Name=\"HEATING:STEAM\".\n   **   ~~~   ** ...will not be shown with the Meter results.\n   ** Warning ** Meter:Custom=\"OTHERFUELS:FACILITY\", invalid Output Variable or Meter Name=\"WATERSYSTEMS:GASOLINE\".\n   **   ~~~   ** ...will not be shown with the Meter results.\n   ** Warning ** Meter:Custom=\"OTHERFUELS:FACILITY\", invalid Output Variable or Meter Name=\"WATERSYSTEMS:DIESEL\".\n   **   ~~~   ** ...will not be shown with the Meter results.\n   ** Warning ** Meter:Custom=\"OTHERFUELS:FACILITY\", invalid Output Variable or Meter Name=\"WATERSYSTEMS:COAL\".\n   **   ~~~   ** ...will not be shown with the Meter results.\n   ** Warning ** Meter:Custom=\"OTHERFUELS:FACILITY\", invalid Output Variable or Meter Name=\"WATERSYSTEMS:FUELOILNO1\".\n   **   ~~~   ** ...will not be shown with the Meter results.\n   ** Warning ** Meter:Custom=\"OTHERFUELS:FACILITY\", invalid Output Variable or Meter Name=\"WATERSYSTEMS:OTHERFUEL1\".\n   **   ~~~   ** ...will not be shown with the Meter results.\n   ** Warning ** Meter:Custom=\"OTHERFUELS:FACILITY\", invalid Output Variable or Meter Name=\"WATERSYSTEMS:STEAM\".\n   **   ~~~   ** ...will not be shown with the Meter results.\n   ** Warning ** Meter:Custom=\"OTHERFUELS:FACILITY\", invalid Output Variable or Meter Name=\"INTERIOREQUIPMENT:GASOLINE\".\n   **   ~~~   ** ...will not be shown with the Meter results.\n   ** Warning ** Meter:Custom=\"OTHERFUELS:FACILITY\", invalid Output Variable or Meter Name=\"INTERIOREQUIPMENT:DIESEL\".\n   **   ~~~   ** ...will not be shown with the Meter results.\n   ** Warning ** Meter:Custom=\"OTHERFUELS:FACILITY\", invalid Output Variable or Meter Name=\"INTERIOREQUIPMENT:COAL\".\n   **   ~~~   ** ...will not be shown with the Meter results.\n   ** Warning ** Meter:Custom=\"OTHERFUELS:FACILITY\", invalid Output Variable or Meter Name=\"INTERIOREQUIPMENT:FUELOILNO1\".\n   **   ~~~   ** ...will not be shown with the Meter results.\n   ** Warning ** Meter:Custom=\"OTHERFUELS:FACILITY\", invalid Output Variable or Meter Name=\"INTERIOREQUIPMENT:OTHERFUEL1\".\n   **   ~~~   ** ...will not be shown with the Meter results.\n   ** Warning ** Meter:Custom=\"OTHERFUELS:FACILITY\", invalid Output Variable or Meter Name=\"INTERIOREQUIPMENT:STEAM\".\n   **   ~~~   ** ...will not be shown with the Meter results.\n   ** Warning ** Meter:Custom=\"OTHERFUELS:FACILITY\", no items assigned \n   **   ~~~   ** ...will not be shown with the Meter results. This may be caused by a Meter:Custom be assigned to another Meter:Custom.\n   ** Warning ** Output:Meter: invalid Key Name=\"HEATING:FUELOILNO2\" - not found.\n   ** Warning ** Output:Meter: invalid Key Name=\"HEATING:PROPANE\" - not found.\n   ** Warning ** Output:Meter: invalid Key Name=\"HEATING:DISTRICTCOOLING\" - not found.\n   ** Warning ** Output:Meter: invalid Key Name=\"HEATING:DISTRICTHEATING\" - not found.\n   ** Warning ** Output:Meter: invalid Key Name=\"HEATING:WATER\" - not found.\n   ** Warning ** Output:Meter: invalid Key Name=\"COOLING:NATURALGAS\" - not found.\n   ** Warning ** Output:Meter: invalid Key Name=\"COOLING:FUELOILNO2\" - not found.\n   ** Warning ** Output:Meter: invalid Key Name=\"COOLING:PROPANE\" - not found.\n   ** Warning ** Output:Meter: invalid Key Name=\"COOLING:DISTRICTCOOLING\" - not found.\n   ** Warning ** Output:Meter: invalid Key Name=\"COOLING:DISTRICTHEATING\" - not found.\n   ** Warning ** Output:Meter: invalid Key Name=\"COOLING:WATER\" - not found.\n   ** Warning ** Output:Meter: invalid Key Name=\"INTERIORLIGHTS:NATURALGAS\" - not found.\n   ** Warning ** Output:Meter: invalid Key Name=\"INTERIORLIGHTS:FUELOILNO2\" - not found.\n   ** Warning ** Output:Meter: invalid Key Name=\"INTERIORLIGHTS:PROPANE\" - not found.\n   ** Warning ** Output:Meter: invalid Key Name=\"INTERIORLIGHTS:DISTRICTCOOLING\" - not found.\n   ** Warning ** Output:Meter: invalid Key Name=\"INTERIORLIGHTS:DISTRICTHEATING\" - not found.\n   ** Warning ** Output:Meter: invalid Key Name=\"INTERIORLIGHTS:WATER\" - not found.\n   ** Warning ** Output:Meter: invalid Key Name=\"EXTERIORLIGHTS:NATURALGAS\" - not found.\n   ** Warning ** Output:Meter: invalid Key Name=\"EXTERIORLIGHTS:FUELOILNO2\" - not found.\n   ** Warning ** Output:Meter: invalid Key Name=\"EXTERIORLIGHTS:PROPANE\" - not found.\n   ** Warning ** Output:Meter: invalid Key Name=\"EXTERIORLIGHTS:DISTRICTCOOLING\" - not found.\n   ** Warning ** Output:Meter: invalid Key Name=\"EXTERIORLIGHTS:DISTRICTHEATING\" - not found.\n   ** Warning ** Output:Meter: invalid Key Name=\"EXTERIORLIGHTS:WATER\" - not found.\n   ** Warning ** Output:Meter: invalid Key Name=\"INTERIOREQUIPMENT:NATURALGAS\" - not found.\n   ** Warning ** Output:Meter: invalid Key Name=\"INTERIOREQUIPMENT:FUELOILNO2\" - not found.\n   ** Warning ** Output:Meter: invalid Key Name=\"INTERIOREQUIPMENT:PROPANE\" - not found.\n   ** Warning ** Output:Meter: invalid Key Name=\"INTERIOREQUIPMENT:DISTRICTCOOLING\" - not found.\n   ** Warning ** Output:Meter: invalid Key Name=\"INTERIOREQUIPMENT:DISTRICTHEATING\" - not found.\n   ** Warning ** Output:Meter: invalid Key Name=\"INTERIOREQUIPMENT:WATER\" - not found.\n   ** Warning ** Output:Meter: invalid Key Name=\"EXTERIOREQUIPMENT:ELECTRICITY\" - not found.\n   ** Warning ** Output:Meter: invalid Key Name=\"EXTERIOREQUIPMENT:NATURALGAS\" - not found.\n   ** Warning ** Output:Meter: invalid Key Name=\"EXTERIOREQUIPMENT:FUELOILNO2\" - not found.\n   ** Warning ** Output:Meter: invalid Key Name=\"EXTERIOREQUIPMENT:PROPANE\" - not found.\n   ** Warning ** Output:Meter: invalid Key Name=\"EXTERIOREQUIPMENT:DISTRICTCOOLING\" - not found.\n   ** Warning ** Output:Meter: invalid Key Name=\"EXTERIOREQUIPMENT:DISTRICTHEATING\" - not found.\n   ** Warning ** Output:Meter: invalid Key Name=\"EXTERIOREQUIPMENT:WATER\" - not found.\n   ** Warning ** Output:Meter: invalid Key Name=\"FANS:NATURALGAS\" - not found.\n   ** Warning ** Output:Meter: invalid Key Name=\"FANS:FUELOILNO2\" - not found.\n   ** Warning ** Output:Meter: invalid Key Name=\"FANS:PROPANE\" - not found.\n   ** Warning ** Output:Meter: invalid Key Name=\"FANS:DISTRICTCOOLING\" - not found.\n   ** Warning ** Output:Meter: invalid Key Name=\"FANS:DISTRICTHEATING\" - not found.\n   ** Warning ** Output:Meter: invalid Key Name=\"FANS:WATER\" - not found.\n   ** Warning ** Output:Meter: invalid Key Name=\"PUMPS:NATURALGAS\" - not found.\n   ** Warning ** Output:Meter: invalid Key Name=\"PUMPS:FUELOILNO2\" - not found.\n   ** Warning ** Output:Meter: invalid Key Name=\"PUMPS:PROPANE\" - not found.\n   ** Warning ** Output:Meter: invalid Key Name=\"PUMPS:DISTRICTCOOLING\" - not found.\n   ** Warning ** Output:Meter: invalid Key Name=\"PUMPS:DISTRICTHEATING\" - not found.\n   ** Warning ** Output:Meter: invalid Key Name=\"PUMPS:WATER\" - not found.\n   ** Warning ** Output:Meter: invalid Key Name=\"HEATREJECTION:NATURALGAS\" - not found.\n   ** Warning ** Output:Meter: invalid Key Name=\"HEATREJECTION:FUELOILNO2\" - not found.\n   ** Warning ** Output:Meter: invalid Key Name=\"HEATREJECTION:PROPANE\" - not found.\n   ** Warning ** Output:Meter: invalid Key Name=\"HEATREJECTION:DISTRICTCOOLING\" - not found.\n   ** Warning ** Output:Meter: invalid Key Name=\"HEATREJECTION:DISTRICTHEATING\" - not found.\n   ** Warning ** Output:Meter: invalid Key Name=\"HUMIDIFIER:ELECTRICITY\" - not found.\n   ** Warning ** Output:Meter: invalid Key Name=\"HUMIDIFIER:NATURALGAS\" - not found.\n   ** Warning ** Output:Meter: invalid Key Name=\"HUMIDIFIER:FUELOILNO2\" - not found.\n   ** Warning ** Output:Meter: invalid Key Name=\"HUMIDIFIER:PROPANE\" - not found.\n   ** Warning ** Output:Meter: invalid Key Name=\"HUMIDIFIER:DISTRICTCOOLING\" - not found.\n   ** Warning ** Output:Meter: invalid Key Name=\"HUMIDIFIER:DISTRICTHEATING\" - not found.\n   ** Warning ** Output:Meter: invalid Key Name=\"HUMIDIFIER:WATER\" - not found.\n   ** Warning ** Output:Meter: invalid Key Name=\"HEATRECOVERY:NATURALGAS\" - not found.\n   ** Warning ** Output:Meter: invalid Key Name=\"HEATRECOVERY:FUELOILNO2\" - not found.\n   ** Warning ** Output:Meter: invalid Key Name=\"HEATRECOVERY:PROPANE\" - not found.\n   ** Warning ** Output:Meter: invalid Key Name=\"HEATRECOVERY:DISTRICTCOOLING\" - not found.\n   ** Warning ** Output:Meter: invalid Key Name=\"HEATRECOVERY:DISTRICTHEATING\" - not found.\n   ** Warning ** Output:Meter: invalid Key Name=\"HEATRECOVERY:WATER\" - not found.\n   ** Warning ** Output:Meter: invalid Key Name=\"WATERSYSTEMS:ELECTRICITY\" - not found.\n   ** Warning ** Output:Meter: invalid Key Name=\"WATERSYSTEMS:FUELOILNO2\" - not found.\n   ** Warning ** Output:Meter: invalid Key Name=\"WATERSYSTEMS:PROPANE\" - not found.\n   ** Warning ** Output:Meter: invalid Key Name=\"WATERSYSTEMS:DISTRICTCOOLING\" - not found.\n   ** Warning ** Output:Meter: invalid Key Name=\"WATERSYSTEMS:DISTRICTHEATING\" - not found.\n   ** Warning ** Output:Meter: invalid Key Name=\"REFRIGERATION:ELECTRICITY\" - not found.\n   ** Warning ** Output:Meter: invalid Key Name=\"REFRIGERATION:NATURALGAS\" - not found.\n   ** Warning ** Output:Meter: invalid Key Name=\"REFRIGERATION:FUELOILNO2\" - not found.\n   ** Warning ** Output:Meter: invalid Key Name=\"REFRIGERATION:PROPANE\" - not found.\n   ** Warning ** Output:Meter: invalid Key Name=\"REFRIGERATION:DISTRICTCOOLING\" - not found.\n   ** Warning ** Output:Meter: invalid Key Name=\"REFRIGERATION:DISTRICTHEATING\" - not found.\n   ** Warning ** Output:Meter: invalid Key Name=\"REFRIGERATION:WATER\" - not found.\n   ** Warning ** Output:Meter: invalid Key Name=\"GENERATORS:ELECTRICITY\" - not found.\n   ** Warning ** Output:Meter: invalid Key Name=\"GENERATORS:NATURALGAS\" - not found.\n   ** Warning ** Output:Meter: invalid Key Name=\"GENERATORS:FUELOILNO2\" - not found.\n   ** Warning ** Output:Meter: invalid Key Name=\"GENERATORS:PROPANE\" - not found.\n   ** Warning ** Output:Meter: invalid Key Name=\"GENERATORS:DISTRICTCOOLING\" - not found.\n   ** Warning ** Output:Meter: invalid Key Name=\"GENERATORS:DISTRICTHEATING\" - not found.\n   ** Warning ** Output:Meter: invalid Key Name=\"GENERATORS:WATER\" - not found.\n   ** Warning ** Output:Meter: invalid Key Name=\"FUELOILNO2:FACILITY\" - not found.\n   ** Warning ** Output:Meter: invalid Key Name=\"PROPANE:FACILITY\" - not found.\n   ** Warning ** Output:Meter: invalid Key Name=\"DISTRICTCOOLING:FACILITY\" - not found.\n   ** Warning ** Output:Meter: invalid Key Name=\"DISTRICTHEATING:FACILITY\" - not found.\n   ** Warning ** Output:Meter: invalid Key Name=\"HEATREJECTION:GASOLINE\" - not found.\n   ** Warning ** Output:Meter: invalid Key Name=\"HEATREJECTION:DIESEL\" - not found.\n   ** Warning ** Output:Meter: invalid Key Name=\"HEATREJECTION:COAL\" - not found.\n   ** Warning ** Output:Meter: invalid Key Name=\"HEATREJECTION:FUELOILNO1\" - not found.\n   ** Warning ** Output:Meter: invalid Key Name=\"HEATREJECTION:OTHERFUEL1\" - not found.\n   ** Warning ** Output:Meter: invalid Key Name=\"HEATREJECTION:STEAM\" - not found.\n   ** Warning ** Output:Meter: invalid Key Name=\"HEATREJECTION:OTHERFUELS\" - not found.\n   ** Warning ** Output:Meter: invalid Key Name=\"HEATING:GASOLINE\" - not found.\n   ** Warning ** Output:Meter: invalid Key Name=\"HEATING:DIESEL\" - not found.\n   ** Warning ** Output:Meter: invalid Key Name=\"HEATING:COAL\" - not found.\n   ** Warning ** Output:Meter: invalid Key Name=\"HEATING:FUELOILNO1\" - not found.\n   ** Warning ** Output:Meter: invalid Key Name=\"HEATING:OTHERFUEL1\" - not found.\n   ** Warning ** Output:Meter: invalid Key Name=\"HEATING:STEAM\" - not found.\n   ** Warning ** Output:Meter: invalid Key Name=\"HEATING:OTHERFUELS\" - not found.\n   ** Warning ** Output:Meter: invalid Key Name=\"WATERSYSTEMS:GASOLINE\" - not found.\n   ** Warning ** Output:Meter: invalid Key Name=\"WATERSYSTEMS:DIESEL\" - not found.\n   ** Warning ** Output:Meter: invalid Key Name=\"WATERSYSTEMS:COAL\" - not found.\n   ** Warning ** Output:Meter: invalid Key Name=\"WATERSYSTEMS:FUELOILNO1\" - not found.\n   ** Warning ** Output:Meter: invalid Key Name=\"WATERSYSTEMS:OTHERFUEL1\" - not found.\n   ** Warning ** Output:Meter: invalid Key Name=\"WATERSYSTEMS:STEAM\" - not found.\n   ** Warning ** Output:Meter: invalid Key Name=\"WATERSYSTEMS:OTHERFUELS\" - not found.\n   ** Warning ** Output:Meter: invalid Key Name=\"INTERIOREQUIPMENT:GASOLINE\" - not found.\n   ** Warning ** Output:Meter: invalid Key Name=\"INTERIOREQUIPMENT:DIESEL\" - not found.\n   ** Warning ** Output:Meter: invalid Key Name=\"INTERIOREQUIPMENT:COAL\" - not found.\n   ** Warning ** Output:Meter: invalid Key Name=\"INTERIOREQUIPMENT:FUELOILNO1\" - not found.\n   ** Warning ** Output:Meter: invalid Key Name=\"INTERIOREQUIPMENT:OTHERFUEL1\" - not found.\n   ** Warning ** Output:Meter: invalid Key Name=\"INTERIOREQUIPMENT:STEAM\" - not found.\n   ** Warning ** Output:Meter: invalid Key Name=\"INTERIOREQUIPMENT:OTHERFUELS\" - not found.\n   ** Warning ** Output:Meter: invalid Key Name=\"OTHERFUELS:FACILITY\" - not found.\n   ** Warning ** Output:Meter:MeterFileOnly requested for \"Electricity:Facility\" (TimeStep), already on \"Output:Meter\". Will report to both eplusout.eso and eplusout.mtr\n   ** Warning ** Output:Meter:MeterFileOnly: invalid Key Name=\"ELECTRICITYPRODUCED:FACILITY\" - not found.\n   ** Warning ** Output:Meter:MeterFileOnly requested for \"NaturalGas:Facility\" (TimeStep), already on \"Output:Meter\". Will report to both eplusout.eso and eplusout.mtr\n   ** Warning ** Output:Meter:MeterFileOnly: invalid Key Name=\"DISTRICTCOOLING:FACILITY\" - not found.\n   ** Warning ** Output:Meter:MeterFileOnly: invalid Key Name=\"DISTRICTHEATING:FACILITY\" - not found.\n   ************* Testing Individual Branch Integrity\n   ************* All Branches passed integrity testing\n   ************* Testing Individual Supply Air Path Integrity\n   ************* All Supply Air Paths passed integrity testing\n   ************* Testing Individual Return Air Path Integrity\n   ************* All Return Air Paths passed integrity testing\n   ************* No node connection errors were found.\n   ** Warning ** CalcOAController: Minimum OA fraction > Mechanical Ventilation Controller request for Controller:OutdoorAir=5 ZONE VAV OA CONTROLLER, Min OA fraction is used.\n   **   ~~~   ** This may be overriding desired ventilation controls. Check inputs for Minimum Outdoor Air Flow Rate, Minimum Outdoor Air Schedule Name and Controller:MechanicalVentilation\n   **   ~~~   ** Minimum OA fraction = 0.8240, Mech Vent OA fraction = 0.4944\n   **   ~~~   **  Environment=BUFFALO NIAGARA INTL AP ANN CLG .4% CONDNS DB=>MWB 1 HVAC Sizing Pass 1, at Simulation time=07/21 00:00 - 01:00\n   ** Warning ** CalcOAController: Minimum OA fraction > Mechanical Ventilation Controller request for Controller:OutdoorAir=5 ZONE VAV 1 OA CONTROLLER, Min OA fraction is used.\n   **   ~~~   ** This may be overriding desired ventilation controls. Check inputs for Minimum Outdoor Air Flow Rate, Minimum Outdoor Air Schedule Name and Controller:MechanicalVentilation\n   **   ~~~   ** Minimum OA fraction = 0.3444, Mech Vent OA fraction = 0.2067\n   **   ~~~   **  Environment=BUFFALO NIAGARA INTL AP ANN CLG .4% CONDNS DB=>MWB 1 HVAC Sizing Pass 1, at Simulation time=07/21 00:00 - 01:00\n   ** Warning ** CalcOAController: Minimum OA fraction > Mechanical Ventilation Controller request for Controller:OutdoorAir=5 ZONE VAV 2 OA CONTROLLER, Min OA fraction is used.\n   **   ~~~   ** This may be overriding desired ventilation controls. Check inputs for Minimum Outdoor Air Flow Rate, Minimum Outdoor Air Schedule Name and Controller:MechanicalVentilation\n   **   ~~~   ** Minimum OA fraction = 0.3484, Mech Vent OA fraction = 0.2090\n   **   ~~~   **  Environment=BUFFALO NIAGARA INTL AP ANN CLG .4% CONDNS DB=>MWB 1 HVAC Sizing Pass 1, at Simulation time=07/21 00:00 - 01:00\n   ** Warning ** CoolingTower:VariableSpeed \"PROPELLER OR AXIAL VARIABLE SPEED FAN OPEN COOLING TOWER 40.2 GPM/HP\" - Water flow rate ratio is outside model boundaries at 1.25.\n   **   ~~~   **  ...Valid range = 0.75 to 1.25. Occurrence info = BUFFALO NIAGARA INTL AP ANN CLG .4% CONDNS DB=>MWB 1 HVAC Sizing Pass 1, 07/21 10:00 - 10:30\n   **   ~~~   **  ...Water flow rate ratio passed to the model = 1.25000\n   **   ~~~   **  ...Water flow rate ratios outside model boundaries may not adversely affect tower performance.\n   ** Warning ** CoolingTower:VariableSpeed \"PROPELLER OR AXIAL VARIABLE SPEED FAN OPEN COOLING TOWER 40.2 GPM/HP\" - Water flow rate ratio is outside model boundaries at 1.25.\n   **   ~~~   **  ...Valid range = 0.75 to 1.25. Occurrence info = BUFFALO NIAGARA INTL AP ANN CLG .4% CONDNS DB=>MWB 1 HVAC Sizing Pass 1, 07/21 10:30 - 11:00\n   **   ~~~   **  ...Water flow rate ratio passed to the model = 1.25000\n   **   ~~~   **  ...Water flow rate ratios outside model boundaries may not adversely affect tower performance.\n   ** Warning ** CoolingTower:VariableSpeed \"PROPELLER OR AXIAL VARIABLE SPEED FAN OPEN COOLING TOWER 40.2 GPM/HP\" - Water flow rate ratio is outside model boundaries at 1.25.\n   **   ~~~   **  ...Valid range = 0.75 to 1.25. Occurrence info = BUFFALO NIAGARA INTL AP ANN CLG .4% CONDNS DB=>MWB 1 HVAC Sizing Pass 1, 07/21 11:00 - 11:30\n   **   ~~~   **  ...Water flow rate ratio passed to the model = 1.25000\n   **   ~~~   **  ...Water flow rate ratios outside model boundaries may not adversely affect tower performance.\n   ** Warning ** CoolingTower:VariableSpeed \"PROPELLER OR AXIAL VARIABLE SPEED FAN OPEN COOLING TOWER 40.2 GPM/HP\" - Water flow rate ratio is outside model boundaries at 1.25.\n   **   ~~~   **  ...Valid range = 0.75 to 1.25. Occurrence info = BUFFALO NIAGARA INTL AP ANN CLG .4% CONDNS DB=>MWB 1 HVAC Sizing Pass 1, 07/21 11:30 - 12:00\n   **   ~~~   **  ...Water flow rate ratio passed to the model = 1.25000\n   **   ~~~   **  ...Water flow rate ratios outside model boundaries may not adversely affect tower performance.\n   ** Warning ** CoolingTower:VariableSpeed \"PROPELLER OR AXIAL VARIABLE SPEED FAN OPEN COOLING TOWER 40.2 GPM/HP\" - Water flow rate ratio is outside model boundaries at 1.25.\n   **   ~~~   **  ...Valid range = 0.75 to 1.25. Occurrence info = BUFFALO NIAGARA INTL AP ANN CLG .4% CONDNS DB=>MWB 1 HVAC Sizing Pass 1, 07/21 12:00 - 13:00\n   **   ~~~   **  ...Water flow rate ratio passed to the model = 1.25000\n   **   ~~~   **  ...Water flow rate ratios outside model boundaries may not adversely affect tower performance.\n   ** Warning ** More than 4% of time (1.0 hours) uncomfortable in one or more zones \n   **   ~~~   ** Based on ASHRAE 55-2004 graph (Section 5.2.1.1)\n   **   ~~~   ** During SizingPeriod Environment [01/21 - 01/21]: BUFFALO NIAGARA INTL AP ANN HTG 99.6% CONDNS DB 1 HVAC Sizing Pass 1\n   **   ~~~   ** 7.0 hours were uncomfortable in zone: BUILDING STORY 2 THERMALZONE 2\n   **   ~~~   ** 1.0 hours were uncomfortable in zone: BUILDING STORY 2 THERMALZONE 4\n   **   ~~~   ** 2.0 hours were uncomfortable in zone: BUILDING STORY 3 THERMALZONE\n   ************* Beginning Simulation\n   ** Warning ** CoolingTower:VariableSpeed \"PROPELLER OR AXIAL VARIABLE SPEED FAN OPEN COOLING TOWER 40.2 GPM/HP\" - Tower range temperature is outside model boundaries at 1.15E-002.\n   **   ~~~   **  ...Valid range = 1.11 to 11.11. Occurrence info = RUN PERIOD 1, 01/08 11:00 - 12:00\n   **   ~~~   **  ...Tower range temperature passed to the model = 1.14819E-002\n   **   ~~~   **  ...Range temperatures outside model boundaries may not adversely affect tower performance.\n   **   ~~~   **  ...This is not an unexpected occurrence when simulating actual conditions.\n   ** Warning ** CoolingTower:VariableSpeed \"PROPELLER OR AXIAL VARIABLE SPEED FAN OPEN COOLING TOWER 40.2 GPM/HP\" - Inlet air wet-bulb temperature is outside model boundaries at -7.35.\n   **   ~~~   **  ...Valid range = -1.00 to 26.67. Occurrence info = RUN PERIOD 1, 01/08 11:00 - 12:00\n   **   ~~~   **  ...Inlet air wet-bulb temperature passed to the model = -1.000000\n   **   ~~~   **  ...Wet-bulb temperatures outside model boundaries may not adversely affect tower performance.\n   ** Warning ** CoolingTower:VariableSpeed \"PROPELLER OR AXIAL VARIABLE SPEED FAN OPEN COOLING TOWER 40.2 GPM/HP\" - Tower approach temperature is outside model boundaries at 28.46.\n   **   ~~~   **  ...Valid range = 1.11 to 11.11. Occurrence info = RUN PERIOD 1, 01/08 11:00 - 12:00\n   **   ~~~   **  ...Tower approach temperature passed to the model = 28.46020\n   **   ~~~   **  ...Approach temperatures outside model boundaries may not adversely affect tower performance.\n   **   ~~~   **  ...This is not an unexpected occurrence when simulating actual conditions.\n   ** Warning ** CoolingTower:VariableSpeed \"PROPELLER OR AXIAL VARIABLE SPEED FAN OPEN COOLING TOWER 40.2 GPM/HP\" - Inlet air wet-bulb temperature is outside model boundaries at -10.12.\n   **   ~~~   **  ...Valid range = -1.00 to 26.67. Occurrence info = RUN PERIOD 1, 01/09 01:42 - 01:48\n   **   ~~~   **  ...Inlet air wet-bulb temperature passed to the model = -1.000000\n   **   ~~~   **  ...Wet-bulb temperatures outside model boundaries may not adversely affect tower performance.\n   ** Warning ** CoolingTower:VariableSpeed \"PROPELLER OR AXIAL VARIABLE SPEED FAN OPEN COOLING TOWER 40.2 GPM/HP\" - Inlet air wet-bulb temperature is outside model boundaries at -10.12.\n   **   ~~~   **  ...Valid range = -1.00 to 26.67. Occurrence info = RUN PERIOD 1, 01/09 01:54 - 02:00\n   **   ~~~   **  ...Inlet air wet-bulb temperature passed to the model = -1.000000\n   **   ~~~   **  ...Wet-bulb temperatures outside model boundaries may not adversely affect tower performance.\n   ** Warning ** CoolingTower:VariableSpeed \"PROPELLER OR AXIAL VARIABLE SPEED FAN OPEN COOLING TOWER 40.2 GPM/HP\" - Inlet air wet-bulb temperature is outside model boundaries at -11.16.\n   **   ~~~   **  ...Valid range = -1.00 to 26.67. Occurrence info = RUN PERIOD 1, 01/09 02:40 - 02:50\n   **   ~~~   **  ...Inlet air wet-bulb temperature passed to the model = -1.000000\n   **   ~~~   **  ...Wet-bulb temperatures outside model boundaries may not adversely affect tower performance.\n   ** Warning ** CoolingTower:VariableSpeed \"PROPELLER OR AXIAL VARIABLE SPEED FAN OPEN COOLING TOWER 40.2 GPM/HP\" - Inlet air wet-bulb temperature is outside model boundaries at -11.16.\n   **   ~~~   **  ...Valid range = -1.00 to 26.67. Occurrence info = RUN PERIOD 1, 01/09 02:50 - 02:60\n   **   ~~~   **  ...Inlet air wet-bulb temperature passed to the model = -1.000000\n   **   ~~~   **  ...Wet-bulb temperatures outside model boundaries may not adversely affect tower performance.\n   ** Warning ** CoolingTower:VariableSpeed \"PROPELLER OR AXIAL VARIABLE SPEED FAN OPEN COOLING TOWER 40.2 GPM/HP\" - Cooling tower air flow rate ratio calculation failed \n   **   ~~~   ** ...with conditions as Twb = -1.00, Trange =  4.41, Tapproach = 28.00, and water flow rate ratio =  1.25\n   **   ~~~   ** ...a solution could not be found within the valid range of air flow rate ratios\n   **   ~~~   **  ...Valid air flow rate ratio range =  0.20 to 1.0.\n   **   ~~~   **  Environment=RUN PERIOD 1, at Simulation time=01/09 11:00 - 12:00\n   **   ~~~   ** ...Consider modifying the design approach or design range temperature for this tower.\n   ** Warning ** SimHVAC: Maximum iterations (20) exceeded for all HVAC loops, at RUN PERIOD 1, 04/19 18:00 - 18:20\n   **   ~~~   ** The solution for one or more of the Air Loop HVAC systems did not appear to converge\n   **   ~~~   ** ...use Output:Diagnostics,DisplayExtraWarnings; to show more details on each max iteration exceeded.\n   ** Warning ** SimHVAC: Maximum iterations (20) exceeded for all HVAC loops, at RUN PERIOD 1, 04/21 15:15 - 15:30\n   **   ~~~   ** The solution for one or more of the Air Loop HVAC systems did not appear to converge\n   ** Warning ** SimHVAC: Maximum iterations (20) exceeded for all HVAC loops, at RUN PERIOD 1, 04/24 15:00 - 16:00\n   **   ~~~   ** The solution for one or more of the Air Loop HVAC systems did not appear to converge\n   ** Warning ** SimHVAC: Maximum iterations (20) exceeded for all HVAC loops, at RUN PERIOD 1, 04/24 15:24 - 15:36\n   **   ~~~   ** The solution for one or more of the Air Loop HVAC systems did not appear to converge\n   ** Warning ** SimHVAC: Maximum iterations (20) exceeded for all HVAC loops, at RUN PERIOD 1, 05/06 15:40 - 15:50\n   **   ~~~   ** The solution for one or more of the Air Loop HVAC systems did not appear to converge\n   ** Warning ** SimHVAC: Maximum iterations (20) exceeded for all HVAC loops, at RUN PERIOD 1, 05/06 16:30 - 16:45\n   **   ~~~   ** The solution for one or more of the Air Loop HVAC systems did not appear to converge\n   ** Warning ** SimHVAC: Maximum iterations (20) exceeded for all HVAC loops, at RUN PERIOD 1, 05/06 16:45 - 17:00\n   **   ~~~   ** The solution for one or more of the Air Loop HVAC systems did not appear to converge\n   ** Warning ** SimHVAC: Maximum iterations (20) exceeded for all HVAC loops, at RUN PERIOD 1, 05/08 14:00 - 14:30\n   **   ~~~   ** The solution for one or more of the Air Loop HVAC systems did not appear to converge\n   ** Warning ** SimHVAC: Maximum iterations (20) exceeded for all HVAC loops, at RUN PERIOD 1, 05/08 16:00 - 16:30\n   **   ~~~   ** The solution for one or more of the Air Loop HVAC systems did not appear to converge\n   ** Warning ** SimHVAC: Maximum iterations (20) exceeded for all HVAC loops, at RUN PERIOD 1, 05/08 17:00 - 18:00\n   **   ~~~   ** The solution for one or more of the Air Loop HVAC systems did not appear to converge\n   ** Warning ** SimHVAC: Maximum iterations (20) exceeded for all HVAC loops, at RUN PERIOD 1, 05/08 18:00 - 19:00\n   **   ~~~   ** The solution for one or more of the Air Loop HVAC systems did not appear to converge\n   ** Warning ** SimHVAC: Maximum iterations (20) exceeded for all HVAC loops, at RUN PERIOD 1, 05/08 18:30 - 19:00\n   **   ~~~   ** The solution for one or more of the Air Loop HVAC systems did not appear to converge\n   ** Warning ** SimHVAC: Maximum iterations (20) exceeded for all HVAC loops, at RUN PERIOD 1, 05/12 18:00 - 19:00\n   **   ~~~   ** The solution for one or more of the Air Loop HVAC systems did not appear to converge\n   ** Warning ** SimHVAC: Maximum iterations (20) exceeded for all HVAC loops, at RUN PERIOD 1, 05/19 18:00 - 19:00\n   **   ~~~   ** The solution for one or more of the Air Loop HVAC systems did not appear to converge\n   ** Warning ** More than 4% of time (350.4 hours) uncomfortable in one or more zones \n   **   ~~~   ** Based on ASHRAE 55-2004 graph (Section 5.2.1.1)\n   **   ~~~   ** During Environment [01/01/2017 - 12/31/2017]: RUN PERIOD 1\n   **   ~~~   ** 408.0 hours were uncomfortable in zone: BUILDING STORY 1 THERMALZONE\n   **   ~~~   ** 2425.0 hours were uncomfortable in zone: BUILDING STORY 1 THERMALZONE 1\n   **   ~~~   ** 2880.0 hours were uncomfortable in zone: BUILDING STORY 1 THERMALZONE 2\n   **   ~~~   ** 2560.0 hours were uncomfortable in zone: BUILDING STORY 1 THERMALZONE 3\n   **   ~~~   ** 2125.0 hours were uncomfortable in zone: BUILDING STORY 1 THERMALZONE 4\n   **   ~~~   ** 1641.0 hours were uncomfortable in zone: BUILDING STORY 2 THERMALZONE 1\n   **   ~~~   ** 2059.0 hours were uncomfortable in zone: BUILDING STORY 2 THERMALZONE 2\n   **   ~~~   ** 1857.0 hours were uncomfortable in zone: BUILDING STORY 2 THERMALZONE 3\n   **   ~~~   ** 1406.0 hours were uncomfortable in zone: BUILDING STORY 2 THERMALZONE 4\n   **   ~~~   ** 380.0 hours were uncomfortable in zone: BUILDING STORY 3 THERMALZONE\n   **   ~~~   ** 1422.0 hours were uncomfortable in zone: BUILDING STORY 3 THERMALZONE 1\n   **   ~~~   ** 1787.0 hours were uncomfortable in zone: BUILDING STORY 3 THERMALZONE 2\n   **   ~~~   ** 1650.0 hours were uncomfortable in zone: BUILDING STORY 3 THERMALZONE 3\n   **   ~~~   ** 1178.0 hours were uncomfortable in zone: BUILDING STORY 3 THERMALZONE 4\n   ** Warning ** The resource referenced by LifeCycleCost:UsePriceEscalation= \"U.S. AVG  COMMERCIAL-ELECTRICITY\" has no energy cost. \n   **   ~~~   ** ... It is likely that the wrong resource is used. The resource should match the meter used in Utility:Tariff.\n   ** Warning ** The resource referenced by LifeCycleCost:UsePriceEscalation= \"U.S. AVG  COMMERCIAL-DISTILLATE OIL\" has no energy cost. \n   **   ~~~   ** ... It is likely that the wrong resource is used. The resource should match the meter used in Utility:Tariff.\n   ** Warning ** The resource referenced by LifeCycleCost:UsePriceEscalation= \"U.S. AVG  COMMERCIAL-RESIDUAL OIL\" has no energy cost. \n   **   ~~~   ** ... It is likely that the wrong resource is used. The resource should match the meter used in Utility:Tariff.\n   ** Warning ** The resource referenced by LifeCycleCost:UsePriceEscalation= \"U.S. AVG  COMMERCIAL-NATURAL GAS\" has no energy cost. \n   **   ~~~   ** ... It is likely that the wrong resource is used. The resource should match the meter used in Utility:Tariff.\n   ** Warning ** The resource referenced by LifeCycleCost:UsePriceEscalation= \"U.S. AVG  COMMERCIAL-COAL\" has no energy cost. \n   **   ~~~   ** ... It is likely that the wrong resource is used. The resource should match the meter used in Utility:Tariff.\n   ************* Simulation Error Summary *************\n   ** Warning ** The following Report Variables were requested but not generated -- check.rdd file\n   **   ~~~   ** Either the IDF did not contain these elements, the variable name is misspelled,\n   **   ~~~   ** or the requested variable is an advanced output which requires Output : Diagnostics, DisplayAdvancedReportVariables;\n   ************* Key=*, VarName=FANGERPMV, Frequency=TimeStep\n   ************* Key=*, VarName=FANGERPPD, Frequency=TimeStep\n   ************* Key=*, VarName=TIME NOT COMFORTABLE SUMMER CLOTHES, Frequency=TimeStep\n   ************* Key=*, VarName=TIME NOT COMFORTABLE WINTER CLOTHES, Frequency=TimeStep\n   ************* Key=*, VarName=TIME NOT COMFORTABLE SUMMER OR WINTER CLOTHES, Frequency=TimeStep\n   ************* Key=*, VarName=DISTRICT COOLING CHILLED WATER RATE, Frequency=TimeStep\n   ************* Key=*, VarName=DISTRICT COOLING MASS FLOW RATE, Frequency=TimeStep\n   ************* Key=*, VarName=DISTRICT COOLING INLET TEMPERATURE, Frequency=TimeStep\n   ************* Key=*, VarName=DISTRICT COOLING OUTLET TEMPERATURE, Frequency=TimeStep\n   ************* Key=*, VarName=DISTRICT HEATING HOT WATER RATE, Frequency=TimeStep\n   ************* Key=*, VarName=DISTRICT HEATING MASS FLOW RATE, Frequency=TimeStep\n   ************* Key=*, VarName=DISTRICT HEATING INLET TEMPERATURE, Frequency=TimeStep\n   ************* Key=*, VarName=DISTRICT HEATING OUTLET TEMPERATURE, Frequency=TimeStep\n   ************* Key=*, VarName=EXTERIOREQUIPMENT:ELECTRICITY, Frequency=TimeStep\n   ************* Key=*, VarName=ICE THERMAL STORAGE END FRACTION, Frequency=TimeStep\n   ************* Key=*, VarName=COOLING COIL ICE THERMAL STORAGE END FRACTION, Frequency=TimeStep\n   ************* There are 12 unused schedules in input.\n   ************* There are 12 unused week schedules in input.\n   ************* There are 44 unused day schedules in input.\n   ************* Use Output:Diagnostics,DisplayUnusedSchedules; to see them.\n   *************\n   ************* ===== Recurring Error Summary =====\n   ************* The following recurring error messages occurred.\n   *************\n   *************  ** Warning ** Controller:OutdoorAir=\"5 ZONE VAV OA CONTROLLER\": Min OA fraction > Mechanical ventilation OA fraction, continues...\n   *************  **   ~~~   **   This error occurred 324748 total times;\n   *************  **   ~~~   **   during Warmup 0 times;\n   *************  **   ~~~   **   during Sizing 0 times.\n   *************  **   ~~~   **   Max=0.824044  Min=0.824044\n   *************\n   *************  ** Warning ** Controller:OutdoorAir=\"5 ZONE VAV 1 OA CONTROLLER\": Min OA fraction > Mechanical ventilation OA fraction, continues...\n   *************  **   ~~~   **   This error occurred 238124 total times;\n   *************  **   ~~~   **   during Warmup 0 times;\n   *************  **   ~~~   **   during Sizing 0 times.\n   *************  **   ~~~   **   Max=0.344422  Min=0.344422\n   *************\n   *************  ** Warning ** Controller:OutdoorAir=\"5 ZONE VAV 2 OA CONTROLLER\": Min OA fraction > Mechanical ventilation OA fraction, continues...\n   *************  **   ~~~   **   This error occurred 274911 total times;\n   *************  **   ~~~   **   during Warmup 0 times;\n   *************  **   ~~~   **   during Sizing 0 times.\n   *************  **   ~~~   **   Max=0.348402  Min=0.348402\n   *************\n   *************  ** Warning ** CoolingTower:VariableSpeed \"PROPELLER OR AXIAL VARIABLE SPEED FAN OPEN COOLING TOWER 40.2 GPM/HP\" - Water flow rate ratio is out of range error continues...\n   *************  **   ~~~   **   This error occurred 314 total times;\n   *************  **   ~~~   **   during Warmup 0 times;\n   *************  **   ~~~   **   during Sizing 0 times.\n   *************  **   ~~~   **   Max=1.251418  Min=1.250001\n   *************\n   *************  ** Warning ** CoolingTower:VariableSpeed \"PROPELLER OR AXIAL VARIABLE SPEED FAN OPEN COOLING TOWER 40.2 GPM/HP\" - Tower range temperature is out of range error continues...\n   *************  **   ~~~   **   This error occurred 8011 total times;\n   *************  **   ~~~   **   during Warmup 0 times;\n   *************  **   ~~~   **   during Sizing 0 times.\n   *************  **   ~~~   **   Max=1.111067  Min=1.247529E-005\n   *************\n   *************  ** Warning ** CoolingTower:VariableSpeed \"PROPELLER OR AXIAL VARIABLE SPEED FAN OPEN COOLING TOWER 40.2 GPM/HP\" - Tower approach temperature is out of range error continues...\n   *************  **   ~~~   **   This error occurred 3483 total times;\n   *************  **   ~~~   **   during Warmup 0 times;\n   *************  **   ~~~   **   during Sizing 0 times.\n   *************  **   ~~~   **   Max=38.775027  Min=11.111112\n   *************\n   *************  ** Warning ** CoolingTower:VariableSpeed \"PROPELLER OR AXIAL VARIABLE SPEED FAN OPEN COOLING TOWER 40.2 GPM/HP\" - Inlet air wet-bulb temperature is out of range error continues...\n   *************  **   ~~~   **   This error occurred 344 total times;\n   *************  **   ~~~   **   during Warmup 0 times;\n   *************  **   ~~~   **   during Sizing 0 times.\n   *************  **   ~~~   **   Max=-1.033401  Min=-17.663916\n   *************\n   *************  ** Warning ** CoolingTower:VariableSpeed \"PROPELLER OR AXIAL VARIABLE SPEED FAN OPEN COOLING TOWER 40.2 GPM/HP\" - Cooling tower air flow rate ratio calculation failed error continues.\n   *************  **   ~~~   **   This error occurred 121 total times;\n   *************  **   ~~~   **   during Warmup 0 times;\n   *************  **   ~~~   **   during Sizing 0 times.\n   *************\n   *************  ** Warning ** SimHVAC: Exceeding Maximum iterations for all HVAC loops, during RUN PERIOD 1 continues\n   *************  **   ~~~   **   This error occurred 5 total times;\n   *************  **   ~~~   **   during Warmup 0 times;\n   *************  **   ~~~   **   during Sizing 0 times.\n   *************\n   *************\n   ************* ===== Final Error Summary =====\n   ************* The following error categories occurred.  Consider correcting or noting.\n   ************* Nominally Unused Constructions\n   ************* ..The nominally unused constructions warning is provided to alert you to potential conditions that can cause\n   ************* ..extra time during simulation. Each construction is calculated by the algorithm indicated in the HeatBalanceAlgorithm\n   ************* ..object. You may remove the constructions indicated (when you use the DisplayExtraWarnings option).\n   *************\n   ************* EnergyPlus Warmup Error Summary. During Warmup: 0 Warning; 0 Severe Errors.\n   ************* EnergyPlus Sizing Error Summary. During Sizing: 58 Warning; 0 Severe Errors.\n   ************* EnergyPlus Completed Successfully-- 850357 Warning; 0 Severe Errors; Elapsed Time=00hr 00min 55.07sec\n",
   "file_paths" : 
   [
      "/Users/kcu/Desktop/Scripting/NREL_Work/UCI/Github/urbanopt-example-geojson-project/example_project_docker/run/baseline_scenario_test/12/generated_files",
      "/Users/kcu/Desktop/Scripting/NREL_Work/UCI/Github/urbanopt-example-geojson-project/example_project_docker/mappers/../weather/",
      "/Users/kcu/.rbenv/versions/2.5.5/lib/ruby/gems/2.5.0/gems/openstudio-calibration-0.3.1/lib/files",
      "/Users/kcu/.rbenv/versions/2.5.5/lib/ruby/gems/2.5.0/gems/openstudio-common-measures-0.3.2/lib/files",
      "/Users/kcu/.rbenv/versions/2.5.5/lib/ruby/gems/2.5.0/gems/openstudio-ee-0.3.2/lib/files",
      "/Users/kcu/.rbenv/versions/2.5.5/lib/ruby/gems/2.5.0/gems/openstudio-extension-0.3.2/lib/files",
      "/Users/kcu/.rbenv/versions/2.5.5/lib/ruby/gems/2.5.0/gems/openstudio-load-flexibility-measures-0.2.1/lib/files",
      "/Users/kcu/.rbenv/versions/2.5.5/lib/ruby/gems/2.5.0/gems/openstudio-model-articulation-0.3.1/lib/files",
      "/Users/kcu/.rbenv/versions/2.5.5/lib/ruby/gems/2.5.0/gems/urbanopt-reopt-0.5.7/lib/files",
      "./files",
      "./weather",
      "../../files",
      "../../weather",
      "./"
   ],
   "hash" : "A6891A4A",
   "measure_paths" : 
   [
      "/Users/kcu/Desktop/Scripting/NREL_Work/UCI/Github/urbanopt-example-geojson-project/example_project_docker/mappers/../measures/",
      "/Users/kcu/Desktop/Scripting/NREL_Work/UCI/Github/urbanopt-example-geojson-project/example_project_docker/mappers/../resources/hpxml-measures",
      "/Users/kcu/.rbenv/versions/2.5.5/lib/ruby/gems/2.5.0/gems/openstudio-calibration-0.3.1/lib/measures",
      "/Users/kcu/.rbenv/versions/2.5.5/lib/ruby/gems/2.5.0/gems/openstudio-common-measures-0.3.2/lib/measures",
      "/Users/kcu/.rbenv/versions/2.5.5/lib/ruby/gems/2.5.0/gems/openstudio-ee-0.3.2/lib/measures",
      "/Users/kcu/.rbenv/versions/2.5.5/lib/ruby/gems/2.5.0/gems/openstudio-extension-0.3.2/lib/measures",
      "/Users/kcu/.rbenv/versions/2.5.5/lib/ruby/gems/2.5.0/gems/openstudio-load-flexibility-measures-0.2.1/lib/measures",
      "/Users/kcu/.rbenv/versions/2.5.5/lib/ruby/gems/2.5.0/gems/openstudio-model-articulation-0.3.1/lib/measures",
      "/Users/kcu/.rbenv/versions/2.5.5/lib/ruby/gems/2.5.0/gems/urbanopt-geojson-0.5.3/lib/measures",
      "/Users/kcu/.rbenv/versions/2.5.5/lib/ruby/gems/2.5.0/gems/urbanopt-reopt-0.5.7/lib/measures",
      "/Users/kcu/.rbenv/versions/2.5.5/lib/ruby/gems/2.5.0/gems/urbanopt-reporting-0.3.7/lib/measures",
      "/Users/kcu/Desktop/Scripting/NREL_Work/UCI/Github/urbanopt-scenario-gem/lib/measures"
   ],
   "name" : "Mall 1",
   "run_directory" : "/Users/kcu/Desktop/Scripting/NREL_Work/UCI/Github/urbanopt-example-geojson-project/example_project_docker/run/baseline_scenario_test/12",
   "seed_file" : null,
   "started_at" : "20210417T094428Z",
   "steps" : 
   [
      {
         "arguments" : 
         {
            "__SKIP__" : true
         },
         "measure_dir_name" : "BuildResidentialModel",
         "result" : 
         {
            "completed_at" : "20210417T094429Z",
            "measure_class_name" : "BuildResidentialModel",
            "measure_display_name" : "Build Residential Model",
            "measure_name" : "build_residential_model",
            "measure_taxonomy" : "Whole Building.Space Types",
            "measure_type" : "ModelMeasure",
            "measure_uid" : "259dc35f-65e8-47d4-913f-69efede5a267",
            "measure_version_id" : "22176a3d-cb26-48b7-85d0-ba9c5e7fdd77",
            "measure_version_modified" : "20200102T175052Z",
            "measure_xml_checksum" : "2C38F48B",
            "started_at" : "20210417T094429Z",
            "stderr" : "",
            "stdout" : "",
            "step_errors" : [],
            "step_files" : [],
            "step_info" : [],
            "step_result" : "Skip",
            "step_values" : [],
            "step_warnings" : []
         }
      },
      {
         "arguments" : 
         {
            "__SKIP__" : false,
            "begin_date" : "2017-01-01",
            "end_date" : "2017-12-31",
            "timesteps_per_hour" : 1
         },
         "measure_dir_name" : "set_run_period",
         "result" : 
         {
            "completed_at" : "20210417T094429Z",
            "measure_class_name" : "SetRunPeriod",
            "measure_display_name" : "SetRunPeriod",
            "measure_name" : "set_run_period",
            "measure_taxonomy" : "Envelope.Form",
            "measure_type" : "ModelMeasure",
            "measure_uid" : "7a84292a-3975-4ab3-9284-6edabcbe750b",
            "measure_version_id" : "4f0334fc-172b-40ec-99e5-1c83e308f760",
            "measure_version_modified" : "20200623T205026Z",
            "measure_xml_checksum" : "2AF3A68E",
            "started_at" : "20210417T094429Z",
            "stderr" : "",
            "stdout" : "[OpenStudio.Measure] <0> OSArgumentVector is deprecated, use OpenStudio::Measure::OSArgumentVector instead.\n",
            "step_errors" : [],
            "step_files" : [],
            "step_info" : [],
            "step_result" : "Success",
            "step_values" : 
            [
               {
                  "name" : "timesteps_per_hour",
                  "value" : 1
               },
               {
                  "name" : "begin_date",
                  "value" : "2017-01-01"
               },
               {
                  "name" : "end_date",
                  "value" : "2017-12-31"
               }
            ],
            "step_warnings" : []
         }
      },
      {
         "arguments" : 
         {
            "__SKIP__" : false,
            "climate_zone" : "ASHRAE 169-2013-6A",
            "weather_file_name" : "USA_NY_Buffalo-Greater.Buffalo.Intl.AP.725280_TMY3.epw"
         },
         "measure_dir_name" : "ChangeBuildingLocation",
         "result" : 
         {
            "completed_at" : "20210417T094430Z",
            "measure_class_name" : "ChangeBuildingLocation",
            "measure_display_name" : "ChangeBuildingLocation",
            "measure_name" : "change_building_location",
            "measure_taxonomy" : "Whole Building.Space Types",
            "measure_type" : "ModelMeasure",
            "measure_uid" : "d4db4971-f5ba-11e3-a3ac-0800200c9a66",
            "measure_version_id" : "0c3c39a2-f5d3-43c1-bdc0-7a32a9379f1a",
            "measure_version_modified" : "20200623T195838Z",
            "measure_xml_checksum" : "057E8D9D",
            "started_at" : "20210417T094429Z",
            "stderr" : "",
            "stdout" : "[openstudio.model.YearDescription] <1> 'UseWeatherFile' is not yet a supported option for YearDescription\n[openstudio.model.YearDescription] <1> 'UseWeatherFile' is not yet a supported option for YearDescription\n[utilities.idf.Workspace] <-1> Renamed Object of type 'OS:SizingPeriod:DesignDay' and named 'Buffalo Niagara Intl Ap Ann Clg .4% Condns DB=>MWB' to 'Buffalo Niagara Intl Ap Ann Clg .4% Condns DB=>MWB 1' to avoid a name conflict upon WorkspaceObject addition.\n[utilities.idf.Workspace] <-1> Renamed Object of type 'OS:SizingPeriod:DesignDay' and named 'Buffalo Niagara Intl Ap Ann Clg .4% Condns WB=>MDB' to 'Buffalo Niagara Intl Ap Ann Clg .4% Condns WB=>MDB 1' to avoid a name conflict upon WorkspaceObject addition.\n[utilities.idf.Workspace] <-1> Renamed Object of type 'OS:SizingPeriod:DesignDay' and named 'Buffalo Niagara Intl Ap Ann Htg 99.6% Condns DB' to 'Buffalo Niagara Intl Ap Ann Htg 99.6% Condns DB 1' to avoid a name conflict upon WorkspaceObject addition.\n",
            "step_errors" : [],
            "step_files" : [],
            "step_final_condition" : "The final weather file is Buffalo Niagara Intl Ap and the model has 3 design day objects.",
            "step_info" : 
            [
               "city is Buffalo Niagara Intl Ap. State is NY",
               "mean dry bulb is 8.966666666666667",
               "Adding object Buffalo Niagara Intl Ap Ann Clg .4% Condns DB=>MWB",
               "Adding object Buffalo Niagara Intl Ap Ann Clg .4% Condns WB=>MDB",
               "Adding object Buffalo Niagara Intl Ap Ann Htg 99.6% Condns DB",
               "Setting ASHRAE Climate Zone to 6A"
            ],
            "step_initial_condition" : "No weather file is set. The model has 0 design day objects",
            "step_result" : "Success",
            "step_values" : 
            [
               {
                  "name" : "weather_file_name",
                  "value" : "USA_NY_Buffalo-Greater.Buffalo.Intl.AP.725280_TMY3.epw"
               },
               {
                  "name" : "climate_zone",
                  "value" : "ASHRAE 169-2013-6A"
               },
               {
                  "name" : "set_year",
                  "value" : 0
               },
               {
                  "name" : "use_upstream_args",
                  "value" : true
               },
               {
                  "name" : "epw_gsub",
                  "value" : "Do Nothing"
               },
               {
                  "name" : "reported_climate_zone",
                  "value" : "ASHRAE 169-2013-6A"
               }
            ],
            "step_warnings" : []
         }
      },
      {
         "arguments" : 
         {
            "__SKIP__" : false,
            "bar_division_method" : "Multiple Space Types - Individual Stories Sliced",
            "bldg_type_a" : "RetailStripmall",
            "bldg_type_a_num_units" : 0,
            "bldg_type_b" : "SmallOffice",
            "bldg_type_b_fract_bldg_area" : 0,
            "bldg_type_b_num_units" : 0,
            "bldg_type_c" : "SmallOffice",
            "bldg_type_c_fract_bldg_area" : 0,
            "bldg_type_c_num_units" : 0,
            "bldg_type_d" : "SmallOffice",
            "bldg_type_d_fract_bldg_area" : 0,
            "bldg_type_d_num_units" : 0,
            "building_rotation" : 0,
            "floor_height" : 10,
            "ns_to_ew_ratio" : 0,
            "num_stories_above_grade" : 3,
            "num_stories_below_grade" : 0,
            "party_wall_fraction" : 0,
            "single_floor_area" : 124803,
            "story_multiplier" : "None",
            "template" : "90.1-2013",
            "wwr" : 0
         },
         "measure_dir_name" : "create_bar_from_building_type_ratios",
         "result" : 
         {
            "completed_at" : "20210417T094433Z",
            "measure_class_name" : "CreateBarFromBuildingTypeRatios",
            "measure_display_name" : "Create Bar From Building Type Ratios",
            "measure_name" : "create_bar_from_building_type_ratios",
            "measure_taxonomy" : "Envelope.Form",
            "measure_type" : "ModelMeasure",
            "measure_uid" : "6e3a14f8-c3c7-4e03-bc51-bef8a52e1a05",
            "measure_version_id" : "c569be27-f463-4721-8bfb-72bd6775d70e",
            "measure_version_modified" : "20200512T025555Z",
            "measure_xml_checksum" : "2AF3A68E",
            "started_at" : "20210417T094432Z",
            "stderr" : "",
[...]
                  "value" : 0.0
               },
               {
                  "name" : "fuel_oil_no_1_heat_rejection_ip",
                  "units" : "MBtu",
                  "value" : 0.0
               },
               {
                  "name" : "fuel_oil_no_1_humidification_ip",
                  "units" : "MBtu",
                  "value" : 0.0
               },
               {
                  "name" : "fuel_oil_no_1_heat_recovery_ip",
                  "units" : "MBtu",
                  "value" : 0.0
               },
               {
                  "name" : "fuel_oil_no_1_water_systems_ip",
                  "units" : "MBtu",
                  "value" : 0.0
               },
               {
                  "name" : "fuel_oil_no_1_refrigeration_ip",
                  "units" : "MBtu",
                  "value" : 0.0
               },
               {
                  "name" : "fuel_oil_no_1_generators_ip",
                  "units" : "MBtu",
                  "value" : 0.0
               },
               {
                  "name" : "fuel_oil_no_1_ip",
                  "units" : "MBtu",
                  "value" : 0.0
               },
               {
                  "name" : "fuel_oil_no_2_heating_ip",
                  "units" : "MBtu",
                  "value" : 0.0
               },
               {
                  "name" : "fuel_oil_no_2_cooling_ip",
                  "units" : "MBtu",
                  "value" : 0.0
               },
               {
                  "name" : "fuel_oil_no_2_interior_lighting_ip",
                  "units" : "MBtu",
                  "value" : 0.0
               },
               {
                  "name" : "fuel_oil_no_2_exterior_lighting_ip",
                  "units" : "MBtu",
                  "value" : 0.0
               },
               {
                  "name" : "fuel_oil_no_2_interior_equipment_ip",
                  "units" : "MBtu",
                  "value" : 0.0
               },
               {
                  "name" : "fuel_oil_no_2_exterior_equipment_ip",
                  "units" : "MBtu",
                  "value" : 0.0
               },
               {
                  "name" : "fuel_oil_no_2_fans_ip",
                  "units" : "MBtu",
                  "value" : 0.0
               },
               {
                  "name" : "fuel_oil_no_2_pumps_ip",
                  "units" : "MBtu",
                  "value" : 0.0
               },
               {
                  "name" : "fuel_oil_no_2_heat_rejection_ip",
                  "units" : "MBtu",
                  "value" : 0.0
               },
               {
                  "name" : "fuel_oil_no_2_humidification_ip",
                  "units" : "MBtu",
                  "value" : 0.0
               },
               {
                  "name" : "fuel_oil_no_2_heat_recovery_ip",
                  "units" : "MBtu",
                  "value" : 0.0
               },
               {
                  "name" : "fuel_oil_no_2_water_systems_ip",
                  "units" : "MBtu",
                  "value" : 0.0
               },
               {
                  "name" : "fuel_oil_no_2_refrigeration_ip",
                  "units" : "MBtu",
                  "value" : 0.0
               },
               {
                  "name" : "fuel_oil_no_2_generators_ip",
                  "units" : "MBtu",
                  "value" : 0.0
               },
               {
                  "name" : "fuel_oil_no_2_ip",
                  "units" : "MBtu",
                  "value" : 0.0
               },
               {
                  "name" : "propane_heating_ip",
                  "units" : "MBtu",
                  "value" : 0.0
               },
               {
                  "name" : "propane_cooling_ip",
                  "units" : "MBtu",
                  "value" : 0.0
               },
               {
                  "name" : "propane_interior_lighting_ip",
                  "units" : "MBtu",
                  "value" : 0.0
               },
               {
                  "name" : "propane_exterior_lighting_ip",
                  "units" : "MBtu",
                  "value" : 0.0
               },
               {
                  "name" : "propane_interior_equipment_ip",
                  "units" : "MBtu",
                  "value" : 0.0
               },
               {
                  "name" : "propane_exterior_equipment_ip",
                  "units" : "MBtu",
                  "value" : 0.0
               },
               {
                  "name" : "propane_fans_ip",
                  "units" : "MBtu",
                  "value" : 0.0
               },
               {
                  "name" : "propane_pumps_ip",
                  "units" : "MBtu",
                  "value" : 0.0
               },
               {
                  "name" : "propane_heat_rejection_ip",
                  "units" : "MBtu",
                  "value" : 0.0
               },
               {
                  "name" : "propane_humidification_ip",
                  "units" : "MBtu",
                  "value" : 0.0
               },
               {
                  "name" : "propane_heat_recovery_ip",
                  "units" : "MBtu",
                  "value" : 0.0
               },
               {
                  "name" : "propane_water_systems_ip",
                  "units" : "MBtu",
                  "value" : 0.0
               },
               {
                  "name" : "propane_refrigeration_ip",
                  "units" : "MBtu",
                  "value" : 0.0
               },
               {
                  "name" : "propane_generators_ip",
                  "units" : "MBtu",
                  "value" : 0.0
               },
               {
                  "name" : "propane_ip",
                  "units" : "MBtu",
                  "value" : 0.0
               },
               {
                  "name" : "other_fuel_1_heating_ip",
                  "units" : "MBtu",
                  "value" : 0.0
               },
               {
                  "name" : "other_fuel_1_cooling_ip",
                  "units" : "MBtu",
                  "value" : 0.0
               },
               {
                  "name" : "other_fuel_1_interior_lighting_ip",
                  "units" : "MBtu",
                  "value" : 0.0
               },
               {
                  "name" : "other_fuel_1_exterior_lighting_ip",
                  "units" : "MBtu",
                  "value" : 0.0
               },
               {
                  "name" : "other_fuel_1_interior_equipment_ip",
                  "units" : "MBtu",
                  "value" : 0.0
               },
               {
                  "name" : "other_fuel_1_exterior_equipment_ip",
                  "units" : "MBtu",
                  "value" : 0.0
               },
               {
                  "name" : "other_fuel_1_fans_ip",
                  "units" : "MBtu",
                  "value" : 0.0
               },
               {
                  "name" : "other_fuel_1_pumps_ip",
                  "units" : "MBtu",
                  "value" : 0.0
               },
               {
                  "name" : "other_fuel_1_heat_rejection_ip",
                  "units" : "MBtu",
                  "value" : 0.0
               },
               {
                  "name" : "other_fuel_1_humidification_ip",
                  "units" : "MBtu",
                  "value" : 0.0
               },
               {
                  "name" : "other_fuel_1_heat_recovery_ip",
                  "units" : "MBtu",
                  "value" : 0.0
               },
               {
                  "name" : "other_fuel_1_water_systems_ip",
                  "units" : "MBtu",
                  "value" : 0.0
               },
               {
                  "name" : "other_fuel_1_refrigeration_ip",
                  "units" : "MBtu",
                  "value" : 0.0
               },
               {
                  "name" : "other_fuel_1_generators_ip",
                  "units" : "MBtu",
                  "value" : 0.0
               },
               {
                  "name" : "other_fuel_1_ip",
                  "units" : "MBtu",
                  "value" : 0.0
               },
               {
                  "name" : "other_fuel_2_heating_ip",
                  "units" : "MBtu",
                  "value" : 0.0
               },
               {
                  "name" : "other_fuel_2_cooling_ip",
                  "units" : "MBtu",
                  "value" : 0.0
               },
               {
                  "name" : "other_fuel_2_interior_lighting_ip",
                  "units" : "MBtu",
                  "value" : 0.0
               },
               {
                  "name" : "other_fuel_2_exterior_lighting_ip",
                  "units" : "MBtu",
                  "value" : 0.0
               },
               {
                  "name" : "other_fuel_2_interior_equipment_ip",
                  "units" : "MBtu",
                  "value" : 0.0
               },
               {
                  "name" : "other_fuel_2_exterior_equipment_ip",
                  "units" : "MBtu",
                  "value" : 0.0
               },
               {
                  "name" : "other_fuel_2_fans_ip",
                  "units" : "MBtu",
                  "value" : 0.0
               },
               {
                  "name" : "other_fuel_2_pumps_ip",
                  "units" : "MBtu",
                  "value" : 0.0
               },
               {
                  "name" : "other_fuel_2_heat_rejection_ip",
                  "units" : "MBtu",
                  "value" : 0.0
               },
               {
                  "name" : "other_fuel_2_humidification_ip",
                  "units" : "MBtu",
                  "value" : 0.0
               },
               {
                  "name" : "other_fuel_2_heat_recovery_ip",
                  "units" : "MBtu",
                  "value" : 0.0
               },
               {
                  "name" : "other_fuel_2_water_systems_ip",
                  "units" : "MBtu",
                  "value" : 0.0
               },
               {
                  "name" : "other_fuel_2_refrigeration_ip",
                  "units" : "MBtu",
                  "value" : 0.0
               },
               {
                  "name" : "other_fuel_2_generators_ip",
                  "units" : "MBtu",
                  "value" : 0.0
               },
               {
                  "name" : "other_fuel_2_ip",
                  "units" : "MBtu",
                  "value" : 0.0
               },
               {
                  "name" : "district_cooling_heating_ip",
                  "units" : "MBtu",
                  "value" : 0.0
               },
               {
                  "name" : "district_cooling_cooling_ip",
                  "units" : "MBtu",
                  "value" : 0.0
               },
               {
                  "name" : "district_cooling_interior_lighting_ip",
                  "units" : "MBtu",
                  "value" : 0.0
               },
               {
                  "name" : "district_cooling_exterior_lighting_ip",
                  "units" : "MBtu",
                  "value" : 0.0
               },
               {
                  "name" : "district_cooling_interior_equipment_ip",
                  "units" : "MBtu",
                  "value" : 0.0
               },
               {
                  "name" : "district_cooling_exterior_equipment_ip",
                  "units" : "MBtu",
                  "value" : 0.0
               },
               {
                  "name" : "district_cooling_fans_ip",
                  "units" : "MBtu",
                  "value" : 0.0
               },
               {
                  "name" : "district_cooling_pumps_ip",
                  "units" : "MBtu",
                  "value" : 0.0
               },
               {
                  "name" : "district_cooling_heat_rejection_ip",
                  "units" : "MBtu",
                  "value" : 0.0
               },
               {
                  "name" : "district_cooling_humidification_ip",
                  "units" : "MBtu",
                  "value" : 0.0
               },
               {
                  "name" : "district_cooling_heat_recovery_ip",
                  "units" : "MBtu",
                  "value" : 0.0
               },
               {
                  "name" : "district_cooling_water_systems_ip",
                  "units" : "MBtu",
                  "value" : 0.0
               },
               {
                  "name" : "district_cooling_refrigeration_ip",
                  "units" : "MBtu",
                  "value" : 0.0
               },
               {
                  "name" : "district_cooling_generators_ip",
                  "units" : "MBtu",
                  "value" : 0.0
               },
               {
                  "name" : "district_cooling_ip",
                  "units" : "MBtu",
                  "value" : 0.0
               },
               {
                  "name" : "district_heating_heating_ip",
                  "units" : "MBtu",
                  "value" : 0.0
               },
               {
                  "name" : "district_heating_cooling_ip",
                  "units" : "MBtu",
                  "value" : 0.0
               },
               {
                  "name" : "district_heating_interior_lighting_ip",
                  "units" : "MBtu",
                  "value" : 0.0
               },
               {
                  "name" : "district_heating_exterior_lighting_ip",
                  "units" : "MBtu",
                  "value" : 0.0
               },
               {
                  "name" : "district_heating_interior_equipment_ip",
                  "units" : "MBtu",
                  "value" : 0.0
               },
               {
                  "name" : "district_heating_exterior_equipment_ip",
                  "units" : "MBtu",
                  "value" : 0.0
               },
               {
                  "name" : "district_heating_fans_ip",
                  "units" : "MBtu",
                  "value" : 0.0
               },
               {
                  "name" : "district_heating_pumps_ip",
                  "units" : "MBtu",
                  "value" : 0.0
               },
               {
                  "name" : "district_heating_heat_rejection_ip",
                  "units" : "MBtu",
                  "value" : 0.0
               },
               {
                  "name" : "district_heating_humidification_ip",
                  "units" : "MBtu",
                  "value" : 0.0
               },
               {
                  "name" : "district_heating_heat_recovery_ip",
                  "units" : "MBtu",
                  "value" : 0.0
               },
               {
                  "name" : "district_heating_water_systems_ip",
                  "units" : "MBtu",
                  "value" : 0.0
               },
               {
                  "name" : "district_heating_refrigeration_ip",
                  "units" : "MBtu",
                  "value" : 0.0
               },
               {
                  "name" : "district_heating_generators_ip",
                  "units" : "MBtu",
                  "value" : 0.0
               },
               {
                  "name" : "district_heating_ip",
                  "units" : "MBtu",
                  "value" : 0.0
               },
               {
                  "name" : "typical_iead_roof_r_31_25",
                  "units" : "ft^2",
                  "value" : 124738.25916977988
               },
               {
                  "name" : "typical_insulated_steel_framed_exterior_wall_r_20_41",
                  "units" : "ft^2",
                  "value" : 45926.403386638092
               },
               {
                  "name" : "u_0_48_shgc_0_40_dbl_ref_d_clr_6_mm_13_mm",
                  "units" : "ft^2",
                  "value" : 169.88127093376613
               },
               {
                  "name" : "gross_window_wall_ratio",
                  "units" : "%",
                  "value" : 30.0
               },
               {
                  "name" : "gross_window_wall_ratio_conditioned",
                  "units" : "%",
                  "value" : 30.0
               },
               {
                  "name" : "skylight_roof_ratio",
                  "units" : "%",
                  "value" : 0.0
               },
               {
                  "name" : "space_type_story_ground_blended_space_type",
                  "units" : "ft^2",
                  "value" : 124738.25916977988
               },
               {
                  "name" : "space_type_story_mid_blended_space_type",
                  "units" : "ft^2",
                  "value" : 124738.25916977988
               },
               {
                  "name" : "space_type_story_top_blended_space_type",
                  "units" : "ft^2",
                  "value" : 124738.25916977988
               },
               {
                  "name" : "strip_mall_strip_mall_type_1_90_1_2013_42_units_service_water_use_1_26_gpm_at_140_f",
                  "units" : "gal/min",
                  "value" : 1.2600000000000002
               },
               {
                  "name" : "strip_mall_strip_mall_type_2_90_1_2013_42_units_service_water_use_1_26_gpm_at_140_f",
                  "units" : "gal/min",
                  "value" : 1.2600000000000002
               },
               {
                  "name" : "strip_mall_strip_mall_type_3_90_1_2013_83_units_service_water_use_2_49_gpm_at_140_f",
                  "units" : "gal/min",
                  "value" : 2.4900000000000024
               },
               {
                  "name" : "zone_max_hours_over_70_rh",
                  "units" : "hr",
                  "value" : 183.0
               },
               {
                  "name" : "zone_max_hours_over_55_rh",
                  "units" : "hr",
                  "value" : 2052.0
               },
               {
                  "name" : "num_zones_x_hours_over_70",
                  "units" : "zones",
                  "value" : 8
               },
               {
                  "name" : "num_zones_x_hours_over_55",
                  "units" : "zones",
                  "value" : 15
               },
               {
                  "name" : "inflation_approach",
                  "value" : "Constant Dollar"
               },
               {
                  "name" : "analysis_length",
                  "units" : "yrs",
                  "value" : 25
               },
               {
                  "name" : "number_of_measures_with_warnings",
                  "value" : 5
               },
               {
                  "name" : "number_warnings",
                  "value" : 76
               },
               {
                  "name" : "annual_peak_electric_demand",
                  "units" : "kW",
                  "value" : 1287.6306100000002
               },
               {
                  "name" : "first_year_capital_cost",
                  "units" : "$",
                  "value" : 0.0
               },
               {
                  "name" : "annual_utility_cost",
                  "units" : "$",
                  "value" : 0.0
               },
               {
                  "name" : "total_lifecycle_cost",
                  "units" : "$",
                  "value" : 0.0
               }
            ],
            "step_warnings" : []
         }
      }
   ],
   "updated_at" : "20210417T094704Z",
   "weather_file" : null
}