Program Version,EnergyPlus, Version 9.4.0-998c4b761e, YMD=2021.04.05 22:23
! <Version>, Version ID
 Version, 9.4
! <Timesteps per Hour>, #TimeSteps, Minutes per TimeStep {minutes}
 Timesteps per Hour,  1, 60
! <System Convergence Limits>, Minimum System TimeStep {minutes}, Max HVAC Iterations, Minimum Plant Iterations, Maximum Plant Iterations
 System Convergence Limits, 1, 20, 2, 8
! <Simulation Control>, Do Zone Sizing, Do System Sizing, Do Plant Sizing, Do Design Days, Do Weather Simulation, Do HVAC Sizing Simulation
 Simulation Control, Yes, Yes, Yes, No, Yes, No
! <Performance Precision Tradeoffs>, Use Coil Direct Simulation, Zone Radiant Exchange Algorithm, Override Mode, Number of Timestep In Hour, Force Euler Method, Minimum Number of Warmup Days, Force Suppress All Begin Environment Resets, Minimum System Timestep, MaxZoneTempDiff, MaxAllowedDelTemp
 Performance Precision Tradeoffs, No, ScriptF, Normal, 1, No, 1, No, 1.0, 0.300, 2.0000E-003
! <Output Reporting Tolerances>, Tolerance for Time Heating Setpoint Not Met, Tolerance for Zone Cooling Setpoint Not Met Time
 Output Reporting Tolerances, 0.200, 0.200, 
! <Site:GroundTemperature:BuildingSurface>,Jan{C},Feb{C},Mar{C},Apr{C},May{C},Jun{C},Jul{C},Aug{C},Sep{C},Oct{C},Nov{C},Dec{C}
 Site:GroundTemperature:BuildingSurface,  19.53,  19.50,  19.54,  19.60,  20.00,  21.64,  22.23,  22.38,  21.45,  20.12,  19.80,  19.63
! <Site:GroundTemperature:FCfactorMethod>,Jan{C},Feb{C},Mar{C},Apr{C},May{C},Jun{C},Jul{C},Aug{C},Sep{C},Oct{C},Nov{C},Dec{C}
 Site:GroundTemperature:FCfactorMethod,  -2.87,  -0.64,   3.71,   7.83,  15.62,  19.72,  20.85,  18.77,  13.96,   7.98,   2.08,  -1.81
! <Site:GroundTemperature:Shallow>,Jan{C},Feb{C},Mar{C},Apr{C},May{C},Jun{C},Jul{C},Aug{C},Sep{C},Oct{C},Nov{C},Dec{C}
 Site:GroundTemperature:Shallow,  13.00,  13.00,  13.00,  13.00,  13.00,  13.00,  13.00,  13.00,  13.00,  13.00,  13.00,  13.00
! <Site:GroundTemperature:Deep>,Jan{C},Feb{C},Mar{C},Apr{C},May{C},Jun{C},Jul{C},Aug{C},Sep{C},Oct{C},Nov{C},Dec{C}
 Site:GroundTemperature:Deep,  16.00,  16.00,  16.00,  16.00,  16.00,  16.00,  16.00,  16.00,  16.00,  16.00,  16.00,  16.00
! <Site:GroundReflectance>,Jan{dimensionless},Feb{dimensionless},Mar{dimensionless},Apr{dimensionless},May{dimensionless},Jun{dimensionless},Jul{dimensionless},Aug{dimensionless},Sep{dimensionless},Oct{dimensionless},Nov{dimensionless},Dec{dimensionless}
 Site:GroundReflectance,  0.20,  0.20,  0.20,  0.20,  0.20,  0.20,  0.20,  0.20,  0.20,  0.20,  0.20,  0.20
! <Site:GroundReflectance:SnowModifier>, Normal, Daylighting {dimensionless}
 Site:GroundReflectance:SnowModifier,   1.000,   1.000
! <Site:GroundReflectance:Snow>,Jan{dimensionless},Feb{dimensionless},Mar{dimensionless},Apr{dimensionless},May{dimensionless},Jun{dimensionless},Jul{dimensionless},Aug{dimensionless},Sep{dimensionless},Oct{dimensionless},Nov{dimensionless},Dec{dimensionless}
 Site:GroundReflectance:Snow,  0.20,  0.20,  0.20,  0.20,  0.20,  0.20,  0.20,  0.20,  0.20,  0.20,  0.20,  0.20
! <Site:GroundReflectance:Snow:Daylighting>,Jan{dimensionless},Feb{dimensionless},Mar{dimensionless},Apr{dimensionless},May{dimensionless},Jun{dimensionless},Jul{dimensionless},Aug{dimensionless},Sep{dimensionless},Oct{dimensionless},Nov{dimensionless},Dec{dimensionless}
 Site:GroundReflectance:Snow:Daylighting,  0.20,  0.20,  0.20,  0.20,  0.20,  0.20,  0.20,  0.20,  0.20,  0.20,  0.20,  0.20
! <Environment:Weather Station>,Wind Sensor Height Above Ground {m},Wind Speed Profile Exponent {},Wind Speed Profile Boundary Layer Thickness {m},Air Temperature Sensor Height Above Ground {m},Wind Speed Modifier Coefficient-Internal,Temperature Modifier Coefficient-Internal
Environment:Weather Station,10.000,0.140,270.000,1.500,1.586,9.750E-003
! <Site:Location>, Location Name, Latitude {N+/S- Deg}, Longitude {E+/W- Deg},  Time Zone Number {GMT+/-}, Elevation {m},  Standard Pressure at Elevation {Pa}, Standard RhoAir at Elevation
Site:Location,Buffalo Niagara Intl Ap NY USA TMY3 WMO#=725280,42.93,-78.73,-5.00,215.00,98769,1.1739
! <Site Water Mains Temperature Information>,Calculation Method{},Water Mains Temperature Schedule Name{},Annual Average Outdoor Air Temperature{C},Maximum Difference In Monthly Average Outdoor Air Temperatures{deltaC},Fixed Default Water Mains Temperature{C}
Site Water Mains Temperature Information,Correlation,NA,8.97,26.20,NA
! <Building Information>, Building Name,North Axis {deg},Terrain,  Loads Convergence Tolerance Value,Temperature Convergence Tolerance Value,  Solar Distribution,Maximum Number of Warmup Days,Minimum Number of Warmup Days
 Building Information,Office 1,0.000,City,4.00000E-002,0.40000,FullExterior,25,1
! <Inside Convection Algorithm>, Algorithm {Simple | TARP | CeilingDiffuser | AdaptiveConvectionAlgorithm}
Inside Convection Algorithm,TARP
! <Outside Convection Algorithm>, Algorithm {SimpleCombined | TARP | MoWitt | DOE-2 | AdaptiveConvectionAlgorithm}
Outside Convection Algorithm,DOE-2
! <Sky Radiance Distribution>, Value {Anisotropic}
Sky Radiance Distribution,Anisotropic
! <Zone Air Solution Algorithm>, Value {ThirdOrderBackwardDifference | AnalyticalSolution | EulerMethod}
 Zone Air Solution Algorithm, ThirdOrderBackwardDifference
! <Zone Air Carbon Dioxide Balance Simulation>, Simulation {Yes/No}, Carbon Dioxide Concentration
 Zone Air Carbon Dioxide Balance Simulation, No,N/A
! <Zone Air Generic Contaminant Balance Simulation>, Simulation {Yes/No}, Generic Contaminant Concentration
 Zone Air Generic Contaminant Balance Simulation, No,N/A
! <Zone Air Mass Flow Balance Simulation>, Enforce Mass Balance, Adjust Zone Mixing, Adjust Zone Infiltration {AddInfiltration | AdjustInfiltration | None}, Infiltration Zones {MixingSourceZonesOnly | AllZones}
 Zone Air Mass Flow Balance Simulation, No,N/A,N/A,N/A
! <HVACSystemRootFindingAlgorithm>, Value {RegulaFalsi | Bisection | BisectionThenRegulaFalsi | RegulaFalsiThenBisection}
 HVACSystemRootFindingAlgorithm, RegulaFalsi
! <Environment:Site Atmospheric Variation>,Wind Speed Profile Exponent {},Wind Speed Profile Boundary Layer Thickness {m},Air Temperature Gradient Coefficient {K/m}
Environment:Site Atmospheric Variation,0.330,460.000,6.500000E-003
! <Surface Geometry>,Starting Corner,Vertex Input Direction,Coordinate System,Daylight Reference Point Coordinate System,Rectangular (Simple) Surface Coordinate System
 Surface Geometry,UpperLeftCorner,Counterclockwise,RelativeCoordinateSystem,RelativeCoordinateSystem,RelativeToZoneOrigin
! <Surface Heat Transfer Algorithm>, Value {CTF - ConductionTransferFunction | EMPD - MoisturePenetrationDepthConductionTransferFunction | CondFD - ConductionFiniteDifference | HAMT - CombinedHeatAndMoistureFiniteElement} - Description,Inside Surface Max Temperature Limit{C}, Surface Convection Coefficient Lower Limit {W/m2-K}, Surface Convection Coefficient Upper Limit {W/m2-K}
Surface Heat Transfer Algorithm, CTF - ConductionTransferFunction,200,0.10,1000.0
! <Shading Summary>, Number of Fixed Detached Shades, Number of Building Detached Shades, Number of Attached Shades
 Shading Summary,0,48,0
! <Zone Summary>, Number of Zones, Number of Zone Surfaces, Number of SubSurfaces
 Zone Summary,6,60,24
! <Zone Information>,Zone Name,North Axis {deg},Origin X-Coordinate {m},Origin Y-Coordinate {m},Origin Z-Coordinate {m},Centroid X-Coordinate {m},Centroid Y-Coordinate {m},Centroid Z-Coordinate {m},Type,Zone Multiplier,Zone List Multiplier,Minimum X {m},Maximum X {m},Minimum Y {m},Maximum Y {m},Minimum Z {m},Maximum Z {m},Ceiling Height {m},Volume {m3},Zone Inside Convection Algorithm {Simple-Detailed-CeilingDiffuser-TrombeWall},Zone Outside Convection Algorithm {Simple-Detailed-Tarp-MoWitt-DOE-2-BLAST}, Floor Area {m2},Exterior Gross Wall Area {m2},Exterior Net Wall Area {m2},Exterior Window Area {m2}, Number of Surfaces, Number of SubSurfaces, Number of Shading SubSurfaces,  Part of Total Building Area
 Zone Information, BUILDING STORY 1 THERMALZONE,0.0,0.00,0.00,0.00,56.85,39.22,1.50,1,1,1,-8.52E-011,113.71,1.68E-005,78.45,0.00,3.00,3.00,15121.67,TARP,DOE-2,5040.56,913.56,639.49,274.07,6,4,0,Yes
 Zone Information, BUILDING STORY 2 THERMALZONE,0.0,0.00,0.00,0.00,56.85,39.22,4.50,1,1,1,-8.52E-011,113.71,1.68E-005,78.45,3.00,6.00,3.00,15121.67,TARP,DOE-2,5040.56,913.56,639.49,274.07,6,4,0,Yes
 Zone Information, BUILDING STORY 3 THERMALZONE,0.0,0.00,0.00,0.00,56.85,39.22,7.50,1,1,1,-8.52E-011,113.71,1.68E-005,78.45,6.00,9.00,3.00,15121.67,TARP,DOE-2,5040.56,913.56,639.49,274.07,6,4,0,Yes
 Zone Information, BUILDING STORY 4 THERMALZONE,0.0,0.00,0.00,0.00,56.85,39.22,10.50,1,1,1,-8.52E-011,113.71,1.68E-005,78.45,9.00,12.00,3.00,15121.67,TARP,DOE-2,5040.56,913.56,639.49,274.07,6,4,0,Yes
 Zone Information, BUILDING STORY 5 THERMALZONE,0.0,0.00,0.00,0.00,56.85,39.22,13.50,1,1,1,-8.52E-011,113.71,1.68E-005,78.45,12.00,15.00,3.00,15121.67,TARP,DOE-2,5040.56,913.56,639.49,274.07,6,4,0,Yes
 Zone Information, BUILDING STORY 6 THERMALZONE,0.0,0.00,0.00,0.00,56.85,39.22,16.50,1,1,1,-8.52E-011,113.71,1.68E-005,78.45,15.00,18.00,3.00,15121.67,TARP,DOE-2,5040.56,913.56,639.49,274.07,6,4,0,Yes
! <Zone Internal Gains Nominal>,Zone Name, Floor Area {m2},# Occupants,Area per Occupant {m2/person},Occupant per Area {person/m2},Interior Lighting {W/m2},Electric Load {W/m2},Gas Load {W/m2},Other Load {W/m2},Hot Water Eq {W/m2},Steam Equipment {W/m2},Sum Loads per Area {W/m2},Outdoor Controlled Baseboard Heat
 Zone Internal Gains Nominal, BUILDING STORY 1 THERMALZONE,5040.56,271.3,18.581,5.382E-002,10.764,8.073,0.000,0.000,0.000,0.000,18.837,No
 Zone Internal Gains Nominal, BUILDING STORY 2 THERMALZONE,5040.56,271.3,18.581,5.382E-002,10.764,8.073,0.000,0.000,0.000,0.000,18.837,No
 Zone Internal Gains Nominal, BUILDING STORY 3 THERMALZONE,5040.56,271.3,18.581,5.382E-002,10.764,8.073,0.000,0.000,0.000,0.000,18.837,No
 Zone Internal Gains Nominal, BUILDING STORY 4 THERMALZONE,5040.56,271.3,18.581,5.382E-002,10.764,8.073,0.000,0.000,0.000,0.000,18.837,No
 Zone Internal Gains Nominal, BUILDING STORY 5 THERMALZONE,5040.56,271.3,18.581,5.382E-002,10.764,44.717,0.000,0.000,0.000,0.000,55.481,No
 Zone Internal Gains Nominal, BUILDING STORY 6 THERMALZONE,5040.56,271.3,18.581,5.382E-002,10.764,8.073,0.000,0.000,0.000,0.000,18.837,No
! <People Internal Gains Nominal>,Name,Schedule Name,Zone Name,Zone Floor Area {m2},# Zone Occupants,Number of People {},People/Floor Area {person/m2},Floor Area per person {m2/person},Fraction Radiant,Fraction Convected,Sensible Fraction Calculation,Activity level,ASHRAE 55 Warnings,Carbon Dioxide Generation Rate,Nominal Minimum Number of People,Nominal Maximum Number of People
 People Internal Gains Nominal, BUILDING STORY 5 THERMALZONE OFFICE WHOLEBUILDING - MD OFFICE PEOPLE 1,OFFICEMEDIUM BLDG_OCC_SCH,BUILDING STORY 5 THERMALZONE,5040.56,271.3,271.3,5.382E-002,18.581,0.300,0.700,AutoCalculate,OFFICEMEDIUM ACTIVITY_SCH,No,3.8200E-008,0,271
 People Internal Gains Nominal, BUILDING STORY 1 THERMALZONE OFFICE WHOLEBUILDING - MD OFFICE PEOPLE 2,OFFICEMEDIUM BLDG_OCC_SCH,BUILDING STORY 1 THERMALZONE,5040.56,271.3,271.3,5.382E-002,18.581,0.300,0.700,AutoCalculate,OFFICEMEDIUM ACTIVITY_SCH,No,3.8200E-008,0,271
 People Internal Gains Nominal, BUILDING STORY 4 THERMALZONE OFFICE WHOLEBUILDING - MD OFFICE PEOPLE 3,OFFICEMEDIUM BLDG_OCC_SCH,BUILDING STORY 4 THERMALZONE,5040.56,271.3,271.3,5.382E-002,18.581,0.300,0.700,AutoCalculate,OFFICEMEDIUM ACTIVITY_SCH,No,3.8200E-008,0,271
 People Internal Gains Nominal, BUILDING STORY 2 THERMALZONE OFFICE WHOLEBUILDING - MD OFFICE PEOPLE 4,OFFICEMEDIUM BLDG_OCC_SCH,BUILDING STORY 2 THERMALZONE,5040.56,271.3,271.3,5.382E-002,18.581,0.300,0.700,AutoCalculate,OFFICEMEDIUM ACTIVITY_SCH,No,3.8200E-008,0,271
 People Internal Gains Nominal, BUILDING STORY 3 THERMALZONE OFFICE WHOLEBUILDING - MD OFFICE PEOPLE 5,OFFICEMEDIUM BLDG_OCC_SCH,BUILDING STORY 3 THERMALZONE,5040.56,271.3,271.3,5.382E-002,18.581,0.300,0.700,AutoCalculate,OFFICEMEDIUM ACTIVITY_SCH,No,3.8200E-008,0,271
 People Internal Gains Nominal, BUILDING STORY 6 THERMALZONE OFFICE WHOLEBUILDING - MD OFFICE PEOPLE 6,OFFICEMEDIUM BLDG_OCC_SCH,BUILDING STORY 6 THERMALZONE,5040.56,271.3,271.3,5.382E-002,18.581,0.300,0.700,AutoCalculate,OFFICEMEDIUM ACTIVITY_SCH,No,3.8200E-008,0,271
! <Lights Internal Gains Nominal>,Name,Schedule Name,Zone Name,Zone Floor Area {m2},# Zone Occupants,Lighting Level {W},Lights/Floor Area {W/m2},Lights per person {W/person},Fraction Return Air,Fraction Radiant,Fraction Short Wave,Fraction Convected,Fraction Replaceable,End-Use Category,Nominal Minimum Lighting Level {W},Nominal Maximum Lighting Level {W}
 Lights Internal Gains Nominal, BUILDING STORY 5 THERMALZONE OFFICE WHOLEBUILDING - MD OFFICE LIGHTS 1,OFFICEMEDIUM BLDG_LIGHT_SCH_2004,BUILDING STORY 5 THERMALZONE,5040.56,271.3,54256.110,10.764,200.000,0.000,0.700,0.200,0.100,1.000,General,0.000,54256.110
 Lights Internal Gains Nominal, BUILDING STORY 1 THERMALZONE OFFICE WHOLEBUILDING - MD OFFICE LIGHTS 2,OFFICEMEDIUM BLDG_LIGHT_SCH_2004,BUILDING STORY 1 THERMALZONE,5040.56,271.3,54256.110,10.764,200.000,0.000,0.700,0.200,0.100,1.000,General,0.000,54256.110
 Lights Internal Gains Nominal, BUILDING STORY 4 THERMALZONE OFFICE WHOLEBUILDING - MD OFFICE LIGHTS 3,OFFICEMEDIUM BLDG_LIGHT_SCH_2004,BUILDING STORY 4 THERMALZONE,5040.56,271.3,54256.110,10.764,200.000,0.000,0.700,0.200,0.100,1.000,General,0.000,54256.110
 Lights Internal Gains Nominal, BUILDING STORY 2 THERMALZONE OFFICE WHOLEBUILDING - MD OFFICE LIGHTS 4,OFFICEMEDIUM BLDG_LIGHT_SCH_2004,BUILDING STORY 2 THERMALZONE,5040.56,271.3,54256.110,10.764,200.000,0.000,0.700,0.200,0.100,1.000,General,0.000,54256.110
 Lights Internal Gains Nominal, BUILDING STORY 3 THERMALZONE OFFICE WHOLEBUILDING - MD OFFICE LIGHTS 5,OFFICEMEDIUM BLDG_LIGHT_SCH_2004,BUILDING STORY 3 THERMALZONE,5040.56,271.3,54256.110,10.764,200.000,0.000,0.700,0.200,0.100,1.000,General,0.000,54256.110
 Lights Internal Gains Nominal, BUILDING STORY 6 THERMALZONE OFFICE WHOLEBUILDING - MD OFFICE LIGHTS 6,OFFICEMEDIUM BLDG_LIGHT_SCH_2004,BUILDING STORY 6 THERMALZONE,5040.56,271.3,54256.110,10.764,200.000,0.000,0.700,0.200,0.100,1.000,General,0.000,54256.110
! <ElectricEquipment Internal Gains Nominal>,Name,Schedule Name,Zone Name,Zone Floor Area {m2},# Zone Occupants,Equipment Level {W},Equipment/Floor Area {W/m2},Equipment per person {W/person},Fraction Latent,Fraction Radiant,Fraction Lost,Fraction Convected,End-Use SubCategory,Nominal Minimum Equipment Level {W},Nominal Maximum Equipment Level {W}
 ElectricEquipment Internal Gains Nominal, BUILDING STORY 5 THERMALZONE 9 ELEVATOR FANS,ELEVATOR SCHEDULE 3,BUILDING STORY 5 THERMALZONE,5040.56,271.3,672.181,0.133,2.478,0.000,0.500,0.000,0.500,Elevators,0.000,672.181
 ElectricEquipment Internal Gains Nominal, BUILDING STORY 5 THERMALZONE 9 ELEVATOR LIFT MOTORS,ELEVATOR SCHEDULE 1,BUILDING STORY 5 THERMALZONE,5040.56,271.3,183235.808,36.352,675.448,0.000,0.000,1.000,0.000,Elevators,0.000,183235.808
 ElectricEquipment Internal Gains Nominal, BUILDING STORY 5 THERMALZONE 9 ELEVATOR LIGHTS,ELEVATOR SCHEDULE 2,BUILDING STORY 5 THERMALZONE,5040.56,271.3,800.216,0.159,2.950,0.000,0.500,0.000,0.500,Elevators,0.000,800.216
 ElectricEquipment Internal Gains Nominal, BUILDING STORY 5 THERMALZONE OFFICE WHOLEBUILDING - MD OFFICE ELEC EQUIP 1,OFFICEMEDIUM BLDG_EQUIP_SCH_2004,BUILDING STORY 5 THERMALZONE,5040.56,271.3,40692.082,8.073,150.000,0.000,0.500,0.000,0.500,General,0.000,40692.082
 ElectricEquipment Internal Gains Nominal, BUILDING STORY 1 THERMALZONE OFFICE WHOLEBUILDING - MD OFFICE ELEC EQUIP 2,OFFICEMEDIUM BLDG_EQUIP_SCH_2004,BUILDING STORY 1 THERMALZONE,5040.56,271.3,40692.082,8.073,150.000,0.000,0.500,0.000,0.500,General,0.000,40692.082
 ElectricEquipment Internal Gains Nominal, BUILDING STORY 4 THERMALZONE OFFICE WHOLEBUILDING - MD OFFICE ELEC EQUIP 3,OFFICEMEDIUM BLDG_EQUIP_SCH_2004,BUILDING STORY 4 THERMALZONE,5040.56,271.3,40692.082,8.073,150.000,0.000,0.500,0.000,0.500,General,0.000,40692.082
 ElectricEquipment Internal Gains Nominal, BUILDING STORY 2 THERMALZONE OFFICE WHOLEBUILDING - MD OFFICE ELEC EQUIP 4,OFFICEMEDIUM BLDG_EQUIP_SCH_2004,BUILDING STORY 2 THERMALZONE,5040.56,271.3,40692.082,8.073,150.000,0.000,0.500,0.000,0.500,General,0.000,40692.082
 ElectricEquipment Internal Gains Nominal, BUILDING STORY 3 THERMALZONE OFFICE WHOLEBUILDING - MD OFFICE ELEC EQUIP 5,OFFICEMEDIUM BLDG_EQUIP_SCH_2004,BUILDING STORY 3 THERMALZONE,5040.56,271.3,40692.082,8.073,150.000,0.000,0.500,0.000,0.500,General,0.000,40692.082
 ElectricEquipment Internal Gains Nominal, BUILDING STORY 6 THERMALZONE OFFICE WHOLEBUILDING - MD OFFICE ELEC EQUIP 6,OFFICEMEDIUM BLDG_EQUIP_SCH_2004,BUILDING STORY 6 THERMALZONE,5040.56,271.3,40692.082,8.073,150.000,0.000,0.500,0.000,0.500,General,0.000,40692.082
! <Shadowing/Sun Position Calculations Annual Simulations>, Shading Calculation Method, Shading Calculation Update Frequency Method, Shading Calculation Update Frequency {days}, Maximum Figures in Shadow Overlap Calculations {}, Polygon Clipping Algorithm, Pixel Counting Resolution, Sky Diffuse Modeling Algorithm, Output External Shading Calculation Results, Disable Self-Shading Within Shading Zone Groups, Disable Self-Shading From Shading Zone Groups to Other Zones
Shadowing/Sun Position Calculations Annual Simulations,PolygonClipping,Periodic,20,15000,SutherlandHodgman,512,SimpleSkyDiffuseModeling,No,No,No
! <Water Heater Information>,Type,Name,Volume {m3},Maximum Capacity {W},Standard Rated Recovery Efficiency, Standard Rated Energy Factor
! <ZoneInfiltration Airflow Stats Nominal>,Name,Schedule Name,Zone Name, Zone Floor Area {m2}, # Zone Occupants,Design Volume Flow Rate {m3/s},Volume Flow Rate/Floor Area {m3/s-m2},Volume Flow Rate/Exterior Surface Area {m3/s-m2},ACH - Air Changes per Hour,Equation A - Constant Term Coefficient {},Equation B - Temperature Term Coefficient {1/C},Equation C - Velocity Term Coefficient {s/m}, Equation D - Velocity Squared Term Coefficient {s2/m2}
 ZoneInfiltration Airflow Stats Nominal, BUILDING STORY 5 THERMALZONE OFFICE WHOLEBUILDING - MD OFFICE A  - STORY GROUND INFILTRATION,ALWAYS ON DISCRETE,BUILDING STORY 5 THERMALZONE,5040.56,271.3,0.251,4.988E-005,2.752E-004,5.986E-002,0.000,0.000,0.224,0.000
 ZoneInfiltration Airflow Stats Nominal, BUILDING STORY 5 THERMALZONE OFFICE WHOLEBUILDING - MD OFFICE A END_A - STORY GROUND INFILTRATION,ALWAYS ON DISCRETE,BUILDING STORY 5 THERMALZONE,5040.56,271.3,2.954E-002,5.861E-006,3.234E-005,7.033E-003,0.000,0.000,0.224,0.000
 ZoneInfiltration Airflow Stats Nominal, BUILDING STORY 5 THERMALZONE OFFICE WHOLEBUILDING - MD OFFICE A END_B - STORY GROUND INFILTRATION,ALWAYS ON DISCRETE,BUILDING STORY 5 THERMALZONE,5040.56,271.3,2.954E-002,5.861E-006,3.234E-005,7.033E-003,0.000,0.000,0.224,0.000
 ZoneInfiltration Airflow Stats Nominal, BUILDING STORY 5 THERMALZONE OFFICE WHOLEBUILDING - MD OFFICE B END_A - STORY GROUND INFILTRATION,ALWAYS ON DISCRETE,BUILDING STORY 5 THERMALZONE,5040.56,271.3,0.158,3.130E-005,1.727E-004,3.756E-002,0.000,0.000,0.224,0.000
 ZoneInfiltration Airflow Stats Nominal, BUILDING STORY 5 THERMALZONE OFFICE WHOLEBUILDING - MD OFFICE B END_B - STORY GROUND INFILTRATION,ALWAYS ON DISCRETE,BUILDING STORY 5 THERMALZONE,5040.56,271.3,0.158,3.130E-005,1.727E-004,3.756E-002,0.000,0.000,0.224,0.000
 ZoneInfiltration Airflow Stats Nominal, BUILDING STORY 5 THERMALZONE OFFICE WHOLEBUILDING - MD OFFICE C  - STORY GROUND INFILTRATION,ALWAYS ON DISCRETE,BUILDING STORY 5 THERMALZONE,5040.56,271.3,0.251,4.988E-005,2.752E-004,5.986E-002,0.000,0.000,0.224,0.000
 ZoneInfiltration Airflow Stats Nominal, BUILDING STORY 5 THERMALZONE OFFICE WHOLEBUILDING - MD OFFICE C END_A - STORY GROUND INFILTRATION,ALWAYS ON DISCRETE,BUILDING STORY 5 THERMALZONE,5040.56,271.3,2.954E-002,5.861E-006,3.234E-005,7.033E-003,0.000,0.000,0.224,0.000
 ZoneInfiltration Airflow Stats Nominal, BUILDING STORY 5 THERMALZONE OFFICE WHOLEBUILDING - MD OFFICE C END_B - STORY GROUND INFILTRATION,ALWAYS ON DISCRETE,BUILDING STORY 5 THERMALZONE,5040.56,271.3,2.954E-002,5.861E-006,3.234E-005,7.033E-003,0.000,0.000,0.224,0.000
 ZoneInfiltration Airflow Stats Nominal, BUILDING STORY 1 THERMALZONE OFFICE WHOLEBUILDING - MD OFFICE A  - STORY MID INFILTRATION,ALWAYS ON DISCRETE,BUILDING STORY 1 THERMALZONE,5040.56,271.3,0.251,4.988E-005,2.752E-004,5.986E-002,0.000,0.000,0.224,0.000
 ZoneInfiltration Airflow Stats Nominal, BUILDING STORY 1 THERMALZONE OFFICE WHOLEBUILDING - MD OFFICE A END_A - STORY MID INFILTRATION,ALWAYS ON DISCRETE,BUILDING STORY 1 THERMALZONE,5040.56,271.3,2.954E-002,5.861E-006,3.234E-005,7.033E-003,0.000,0.000,0.224,0.000
 ZoneInfiltration Airflow Stats Nominal, BUILDING STORY 1 THERMALZONE OFFICE WHOLEBUILDING - MD OFFICE A END_B - STORY MID INFILTRATION,ALWAYS ON DISCRETE,BUILDING STORY 1 THERMALZONE,5040.56,271.3,2.954E-002,5.861E-006,3.234E-005,7.033E-003,0.000,0.000,0.224,0.000
 ZoneInfiltration Airflow Stats Nominal, BUILDING STORY 1 THERMALZONE OFFICE WHOLEBUILDING - MD OFFICE B END_A - STORY MID INFILTRATION,ALWAYS ON DISCRETE,BUILDING STORY 1 THERMALZONE,5040.56,271.3,0.158,3.130E-005,1.727E-004,3.756E-002,0.000,0.000,0.224,0.000
 ZoneInfiltration Airflow Stats Nominal, BUILDING STORY 1 THERMALZONE OFFICE WHOLEBUILDING - MD OFFICE B END_B - STORY MID INFILTRATION,ALWAYS ON DISCRETE,BUILDING STORY 1 THERMALZONE,5040.56,271.3,0.158,3.130E-005,1.727E-004,3.756E-002,0.000,0.000,0.224,0.000
 ZoneInfiltration Airflow Stats Nominal, BUILDING STORY 1 THERMALZONE OFFICE WHOLEBUILDING - MD OFFICE C  - STORY MID INFILTRATION,ALWAYS ON DISCRETE,BUILDING STORY 1 THERMALZONE,5040.56,271.3,0.251,4.988E-005,2.752E-004,5.986E-002,0.000,0.000,0.224,0.000
 ZoneInfiltration Airflow Stats Nominal, BUILDING STORY 1 THERMALZONE OFFICE WHOLEBUILDING - MD OFFICE C END_A - STORY MID INFILTRATION,ALWAYS ON DISCRETE,BUILDING STORY 1 THERMALZONE,5040.56,271.3,2.954E-002,5.861E-006,3.234E-005,7.033E-003,0.000,0.000,0.224,0.000
 ZoneInfiltration Airflow Stats Nominal, BUILDING STORY 1 THERMALZONE OFFICE WHOLEBUILDING - MD OFFICE C END_B - STORY MID INFILTRATION,ALWAYS ON DISCRETE,BUILDING STORY 1 THERMALZONE,5040.56,271.3,2.954E-002,5.861E-006,3.234E-005,7.033E-003,0.000,0.000,0.224,0.000
 ZoneInfiltration Airflow Stats Nominal, BUILDING STORY 4 THERMALZONE OFFICE WHOLEBUILDING - MD OFFICE A  - STORY MID2 INFILTRATION,ALWAYS ON DISCRETE,BUILDING STORY 4 THERMALZONE,5040.56,271.3,1.639,3.251E-004,2.752E-004,0.390,0.000,0.000,0.224,0.000
 ZoneInfiltration Airflow Stats Nominal, BUILDING STORY 4 THERMALZONE OFFICE WHOLEBUILDING - MD OFFICE A END_A - STORY MID2 INFILTRATION,ALWAYS ON DISCRETE,BUILDING STORY 4 THERMALZONE,5040.56,271.3,0.193,3.820E-005,3.234E-005,4.584E-002,0.000,0.000,0.224,0.000
 ZoneInfiltration Airflow Stats Nominal, BUILDING STORY 4 THERMALZONE OFFICE WHOLEBUILDING - MD OFFICE A END_B - STORY MID2 INFILTRATION,ALWAYS ON DISCRETE,BUILDING STORY 4 THERMALZONE,5040.56,271.3,0.193,3.820E-005,3.234E-005,4.584E-002,0.000,0.000,0.224,0.000
 ZoneInfiltration Airflow Stats Nominal, BUILDING STORY 4 THERMALZONE OFFICE WHOLEBUILDING - MD OFFICE B END_A - STORY MID2 INFILTRATION,ALWAYS ON DISCRETE,BUILDING STORY 4 THERMALZONE,5040.56,271.3,1.028,2.040E-004,1.727E-004,0.245,0.000,0.000,0.224,0.000
 ZoneInfiltration Airflow Stats Nominal, BUILDING STORY 4 THERMALZONE OFFICE WHOLEBUILDING - MD OFFICE B END_B - STORY MID2 INFILTRATION,ALWAYS ON DISCRETE,BUILDING STORY 4 THERMALZONE,5040.56,271.3,1.028,2.040E-004,1.727E-004,0.245,0.000,0.000,0.224,0.000
 ZoneInfiltration Airflow Stats Nominal, BUILDING STORY 4 THERMALZONE OFFICE WHOLEBUILDING - MD OFFICE C  - STORY MID2 INFILTRATION,ALWAYS ON DISCRETE,BUILDING STORY 4 THERMALZONE,5040.56,271.3,1.639,3.251E-004,2.752E-004,0.390,0.000,0.000,0.224,0.000
 ZoneInfiltration Airflow Stats Nominal, BUILDING STORY 4 THERMALZONE OFFICE WHOLEBUILDING - MD OFFICE C END_A - STORY MID2 INFILTRATION,ALWAYS ON DISCRETE,BUILDING STORY 4 THERMALZONE,5040.56,271.3,0.193,3.820E-005,3.234E-005,4.584E-002,0.000,0.000,0.224,0.000
 ZoneInfiltration Airflow Stats Nominal, BUILDING STORY 4 THERMALZONE OFFICE WHOLEBUILDING - MD OFFICE C END_B - STORY MID2 INFILTRATION,ALWAYS ON DISCRETE,BUILDING STORY 4 THERMALZONE,5040.56,271.3,0.193,3.820E-005,3.234E-005,4.584E-002,0.000,0.000,0.224,0.000
 ZoneInfiltration Airflow Stats Nominal, BUILDING STORY 2 THERMALZONE OFFICE WHOLEBUILDING - MD OFFICE A  - STORY MID3 INFILTRATION,ALWAYS ON DISCRETE,BUILDING STORY 2 THERMALZONE,5040.56,271.3,0.251,4.988E-005,2.752E-004,5.986E-002,0.000,0.000,0.224,0.000
 ZoneInfiltration Airflow Stats Nominal, BUILDING STORY 2 THERMALZONE OFFICE WHOLEBUILDING - MD OFFICE A END_A - STORY MID3 INFILTRATION,ALWAYS ON DISCRETE,BUILDING STORY 2 THERMALZONE,5040.56,271.3,2.954E-002,5.861E-006,3.234E-005,7.033E-003,0.000,0.000,0.224,0.000
 ZoneInfiltration Airflow Stats Nominal, BUILDING STORY 2 THERMALZONE OFFICE WHOLEBUILDING - MD OFFICE A END_B - STORY MID3 INFILTRATION,ALWAYS ON DISCRETE,BUILDING STORY 2 THERMALZONE,5040.56,271.3,2.954E-002,5.861E-006,3.234E-005,7.033E-003,0.000,0.000,0.224,0.000
 ZoneInfiltration Airflow Stats Nominal, BUILDING STORY 2 THERMALZONE OFFICE WHOLEBUILDING - MD OFFICE B END_A - STORY MID3 INFILTRATION,ALWAYS ON DISCRETE,BUILDING STORY 2 THERMALZONE,5040.56,271.3,0.158,3.130E-005,1.727E-004,3.756E-002,0.000,0.000,0.224,0.000
 ZoneInfiltration Airflow Stats Nominal, BUILDING STORY 2 THERMALZONE OFFICE WHOLEBUILDING - MD OFFICE B END_B - STORY MID3 INFILTRATION,ALWAYS ON DISCRETE,BUILDING STORY 2 THERMALZONE,5040.56,271.3,0.158,3.130E-005,1.727E-004,3.756E-002,0.000,0.000,0.224,0.000
 ZoneInfiltration Airflow Stats Nominal, BUILDING STORY 2 THERMALZONE OFFICE WHOLEBUILDING - MD OFFICE C  - STORY MID3 INFILTRATION,ALWAYS ON DISCRETE,BUILDING STORY 2 THERMALZONE,5040.56,271.3,0.251,4.988E-005,2.752E-004,5.986E-002,0.000,0.000,0.224,0.000
 ZoneInfiltration Airflow Stats Nominal, BUILDING STORY 2 THERMALZONE OFFICE WHOLEBUILDING - MD OFFICE C END_A - STORY MID3 INFILTRATION,ALWAYS ON DISCRETE,BUILDING STORY 2 THERMALZONE,5040.56,271.3,2.954E-002,5.861E-006,3.234E-005,7.033E-003,0.000,0.000,0.224,0.000
 ZoneInfiltration Airflow Stats Nominal, BUILDING STORY 2 THERMALZONE OFFICE WHOLEBUILDING - MD OFFICE C END_B - STORY MID3 INFILTRATION,ALWAYS ON DISCRETE,BUILDING STORY 2 THERMALZONE,5040.56,271.3,2.954E-002,5.861E-006,3.234E-005,7.033E-003,0.000,0.000,0.224,0.000
 ZoneInfiltration Airflow Stats Nominal, BUILDING STORY 3 THERMALZONE OFFICE WHOLEBUILDING - MD OFFICE A  - STORY MID4 INFILTRATION,ALWAYS ON DISCRETE,BUILDING STORY 3 THERMALZONE,5040.56,271.3,1.639,3.251E-004,2.752E-004,0.390,0.000,0.000,0.224,0.000
 ZoneInfiltration Airflow Stats Nominal, BUILDING STORY 3 THERMALZONE OFFICE WHOLEBUILDING - MD OFFICE A END_A - STORY MID4 INFILTRATION,ALWAYS ON DISCRETE,BUILDING STORY 3 THERMALZONE,5040.56,271.3,0.193,3.820E-005,3.234E-005,4.584E-002,0.000,0.000,0.224,0.000
 ZoneInfiltration Airflow Stats Nominal, BUILDING STORY 3 THERMALZONE OFFICE WHOLEBUILDING - MD OFFICE A END_B - STORY MID4 INFILTRATION,ALWAYS ON DISCRETE,BUILDING STORY 3 THERMALZONE,5040.56,271.3,0.193,3.820E-005,3.234E-005,4.584E-002,0.000,0.000,0.224,0.000
 ZoneInfiltration Airflow Stats Nominal, BUILDING STORY 3 THERMALZONE OFFICE WHOLEBUILDING - MD OFFICE B END_A - STORY MID4 INFILTRATION,ALWAYS ON DISCRETE,BUILDING STORY 3 THERMALZONE,5040.56,271.3,1.028,2.040E-004,1.727E-004,0.245,0.000,0.000,0.224,0.000
 ZoneInfiltration Airflow Stats Nominal, BUILDING STORY 3 THERMALZONE OFFICE WHOLEBUILDING - MD OFFICE B END_B - STORY MID4 INFILTRATION,ALWAYS ON DISCRETE,BUILDING STORY 3 THERMALZONE,5040.56,271.3,1.028,2.040E-004,1.727E-004,0.245,0.000,0.000,0.224,0.000
 ZoneInfiltration Airflow Stats Nominal, BUILDING STORY 3 THERMALZONE OFFICE WHOLEBUILDING - MD OFFICE C  - STORY MID4 INFILTRATION,ALWAYS ON DISCRETE,BUILDING STORY 3 THERMALZONE,5040.56,271.3,1.639,3.251E-004,2.752E-004,0.390,0.000,0.000,0.224,0.000
 ZoneInfiltration Airflow Stats Nominal, BUILDING STORY 3 THERMALZONE OFFICE WHOLEBUILDING - MD OFFICE C END_A - STORY MID4 INFILTRATION,ALWAYS ON DISCRETE,BUILDING STORY 3 THERMALZONE,5040.56,271.3,0.193,3.820E-005,3.234E-005,4.584E-002,0.000,0.000,0.224,0.000
 ZoneInfiltration Airflow Stats Nominal, BUILDING STORY 3 THERMALZONE OFFICE WHOLEBUILDING - MD OFFICE C END_B - STORY MID4 INFILTRATION,ALWAYS ON DISCRETE,BUILDING STORY 3 THERMALZONE,5040.56,271.3,0.193,3.820E-005,3.234E-005,4.584E-002,0.000,0.000,0.224,0.000
 ZoneInfiltration Airflow Stats Nominal, BUILDING STORY 6 THERMALZONE OFFICE WHOLEBUILDING - MD OFFICE A  - STORY TOP INFILTRATION,ALWAYS ON DISCRETE,BUILDING STORY 6 THERMALZONE,5040.56,271.3,0.244,4.847E-005,4.104E-005,5.817E-002,0.000,0.000,0.224,0.000
 ZoneInfiltration Airflow Stats Nominal, BUILDING STORY 6 THERMALZONE OFFICE WHOLEBUILDING - MD OFFICE A END_A - STORY TOP INFILTRATION,ALWAYS ON DISCRETE,BUILDING STORY 6 THERMALZONE,5040.56,271.3,2.871E-002,5.695E-006,4.821E-006,6.834E-003,0.000,0.000,0.224,0.000
 ZoneInfiltration Airflow Stats Nominal, BUILDING STORY 6 THERMALZONE OFFICE WHOLEBUILDING - MD OFFICE A END_B - STORY TOP INFILTRATION,ALWAYS ON DISCRETE,BUILDING STORY 6 THERMALZONE,5040.56,271.3,2.871E-002,5.695E-006,4.821E-006,6.834E-003,0.000,0.000,0.224,0.000
 ZoneInfiltration Airflow Stats Nominal, BUILDING STORY 6 THERMALZONE OFFICE WHOLEBUILDING - MD OFFICE B END_A - STORY TOP INFILTRATION,ALWAYS ON DISCRETE,BUILDING STORY 6 THERMALZONE,5040.56,271.3,0.153,3.042E-005,2.575E-005,3.650E-002,0.000,0.000,0.224,0.000
 ZoneInfiltration Airflow Stats Nominal, BUILDING STORY 6 THERMALZONE OFFICE WHOLEBUILDING - MD OFFICE B END_B - STORY TOP INFILTRATION,ALWAYS ON DISCRETE,BUILDING STORY 6 THERMALZONE,5040.56,271.3,0.153,3.042E-005,2.575E-005,3.650E-002,0.000,0.000,0.224,0.000
 ZoneInfiltration Airflow Stats Nominal, BUILDING STORY 6 THERMALZONE OFFICE WHOLEBUILDING - MD OFFICE C  - STORY TOP INFILTRATION,ALWAYS ON DISCRETE,BUILDING STORY 6 THERMALZONE,5040.56,271.3,0.244,4.847E-005,4.104E-005,5.817E-002,0.000,0.000,0.224,0.000
 ZoneInfiltration Airflow Stats Nominal, BUILDING STORY 6 THERMALZONE OFFICE WHOLEBUILDING - MD OFFICE C END_A - STORY TOP INFILTRATION,ALWAYS ON DISCRETE,BUILDING STORY 6 THERMALZONE,5040.56,271.3,2.871E-002,5.695E-006,4.821E-006,6.834E-003,0.000,0.000,0.224,0.000
 ZoneInfiltration Airflow Stats Nominal, BUILDING STORY 6 THERMALZONE OFFICE WHOLEBUILDING - MD OFFICE C END_B - STORY TOP INFILTRATION,ALWAYS ON DISCRETE,BUILDING STORY 6 THERMALZONE,5040.56,271.3,2.871E-002,5.695E-006,4.821E-006,6.834E-003,0.000,0.000,0.224,0.000
! <AirFlow Model>, Simple
 AirFlow Model, Simple
! <RoomAir Model>, Zone Name, Mixing/Mundt/UCSDDV/UCSDCV/UCSDUFI/UCSDUFE/User Defined
RoomAir Model,BUILDING STORY 1 THERMALZONE,Mixing/Well-Stirred
RoomAir Model,BUILDING STORY 2 THERMALZONE,Mixing/Well-Stirred
RoomAir Model,BUILDING STORY 3 THERMALZONE,Mixing/Well-Stirred
RoomAir Model,BUILDING STORY 4 THERMALZONE,Mixing/Well-Stirred
RoomAir Model,BUILDING STORY 5 THERMALZONE,Mixing/Well-Stirred
RoomAir Model,BUILDING STORY 6 THERMALZONE,Mixing/Well-Stirred
! <AirflowNetwork Model:Control>, No Multizone or Distribution/Multizone with Distribution/Multizone without Distribution/Multizone with Distribution only during Fan Operation
AirflowNetwork Model:Control,NoMultizoneOrDistribution
! <Zone Volume Capacitance Multiplier>, Sensible Heat Capacity Multiplier, Moisture Capacity Multiplier, Carbon Dioxide Capacity Multiplier, Generic Contaminant Capacity Multiplier
Zone Volume Capacitance Multiplier,   1.000 ,   1.000,   1.000,   1.000
! <Load Timesteps in Zone Design Calculation Averaging Window>, Value
 Load Timesteps in Zone Design Calculation Averaging Window,    1
! <Heating Sizing Factor Information>, Sizing Factor ID, Value
 Heating Sizing Factor Information, Global,   1.2500    
 Heating Sizing Factor Information, Zone BUILDING STORY 1 THERMALZONE,   1.2500    
 Heating Sizing Factor Information, Zone BUILDING STORY 2 THERMALZONE,   1.2500    
 Heating Sizing Factor Information, Zone BUILDING STORY 3 THERMALZONE,   1.2500    
 Heating Sizing Factor Information, Zone BUILDING STORY 4 THERMALZONE,   1.2500    
 Heating Sizing Factor Information, Zone BUILDING STORY 5 THERMALZONE,   1.2500    
 Heating Sizing Factor Information, Zone BUILDING STORY 6 THERMALZONE,   1.2500    
! <Cooling Sizing Factor Information>, Sizing Factor ID, Value
 Cooling Sizing Factor Information, Global,   1.1500    
 Cooling Sizing Factor Information, Zone BUILDING STORY 1 THERMALZONE,   1.1500    
 Cooling Sizing Factor Information, Zone BUILDING STORY 2 THERMALZONE,   1.1500    
 Cooling Sizing Factor Information, Zone BUILDING STORY 3 THERMALZONE,   1.1500    
 Cooling Sizing Factor Information, Zone BUILDING STORY 4 THERMALZONE,   1.1500    
 Cooling Sizing Factor Information, Zone BUILDING STORY 5 THERMALZONE,   1.1500    
 Cooling Sizing Factor Information, Zone BUILDING STORY 6 THERMALZONE,   1.1500    
! <Zone Sizing Information>, Zone Name, Load Type, Calc Des Load {W}, User Des Load {W}, Calc Des Air Flow Rate {m3/s}, User Des Air Flow Rate {m3/s}, Design Day Name, Date/Time of Peak, Temperature at Peak {C}, Humidity Ratio at Peak {kgWater/kgDryAir}, Floor Area {m2}, # Occupants, Calc Outdoor Air Flow Rate {m3/s}, Calc DOAS Heat Addition Rate {W}
 Zone Sizing Information, BUILDING STORY 1 THERMALZONE, Cooling, 132779.26127, 152696.15047, 8.64650, 9.94348, BUFFALO NIAGARA INTL AP ANN CLG .4% CONDNS WB=>MDB, 7/21 08:00:00, 20.91800, 1.59875E-002, 5040.55753, 271.28055, 2.56060, 0.00000
 Zone Sizing Information, BUILDING STORY 1 THERMALZONE, Heating, 79032.93836, 98791.17296, 3.38413, 4.23017, BUFFALO NIAGARA INTL AP ANN HTG 99.6% CONDNS DB, 1/21 08:00:00, -16.30000, 9.24091E-004, 5040.55753, 271.28055, 2.56060, 0.00000
 Zone Sizing Information, BUILDING STORY 2 THERMALZONE, Cooling, 179587.60094, 206525.74108, 13.36366, 15.36821, BUFFALO NIAGARA INTL AP ANN CLG .4% CONDNS DB=>MWB, 7/21 10:00:00, 26.76600, 1.33607E-002, 5040.55753, 271.28055, 2.56060, 0.00000
 Zone Sizing Information, BUILDING STORY 2 THERMALZONE, Heating, 100266.90255, 125333.62818, 4.30349, 5.37936, BUFFALO NIAGARA INTL AP ANN HTG 99.6% CONDNS DB, 1/21 08:00:00, -16.30000, 9.24091E-004, 5040.55753, 271.28055, 2.56060, 0.00000
 Zone Sizing Information, BUILDING STORY 3 THERMALZONE, Cooling, 160538.75513, 184619.56840, 11.95442, 13.74759, BUFFALO NIAGARA INTL AP ANN CLG .4% CONDNS WB=>MDB, 7/21 10:00:00, 24.26600, 1.74610E-002, 5040.55753, 271.28055, 2.56060, 0.00000
 Zone Sizing Information, BUILDING STORY 3 THERMALZONE, Heating, 312745.85082, 390932.31352, 13.45818, 16.82272, BUFFALO NIAGARA INTL AP ANN HTG 99.6% CONDNS DB, 1/21 08:00:00, -16.30000, 9.24091E-004, 5040.55753, 271.28055, 2.56060, 0.00000
 Zone Sizing Information, BUILDING STORY 4 THERMALZONE, Cooling, 178725.91455, 205534.80173, 13.30409, 15.29971, BUFFALO NIAGARA INTL AP ANN CLG .4% CONDNS DB=>MWB, 7/21 10:00:00, 26.76600, 1.33607E-002, 5040.55753, 271.28055, 2.56060, 0.00000
 Zone Sizing Information, BUILDING STORY 4 THERMALZONE, Heating, 330229.68577, 412787.10721, 14.20923, 17.76153, BUFFALO NIAGARA INTL AP ANN HTG 99.6% CONDNS DB, 1/21 08:00:00, -16.30000, 9.24091E-004, 5040.55753, 271.28055, 2.56060, 0.00000
 Zone Sizing Information, BUILDING STORY 5 THERMALZONE, Cooling, 222106.32933, 255422.27872, 14.99208, 17.24089, BUFFALO NIAGARA INTL AP ANN CLG .4% CONDNS DB=>MWB, 7/21 08:00:00, 23.41800, 1.33548E-002, 5040.55753, 271.28055, 2.56060, 0.00000
 Zone Sizing Information, BUILDING STORY 5 THERMALZONE, Heating, 133045.25060, 166306.56325, 5.71699, 7.14624, BUFFALO NIAGARA INTL AP ANN HTG 99.6% CONDNS DB, 1/21 08:00:00, -16.30000, 9.24091E-004, 5040.55753, 271.28055, 2.56060, 0.00000
 Zone Sizing Information, BUILDING STORY 6 THERMALZONE, Cooling, 198814.42457, 228636.58825, 13.32209, 15.32041, BUFFALO NIAGARA INTL AP ANN CLG .4% CONDNS DB=>MWB, 7/21 08:00:00, 23.41800, 1.33548E-002, 5040.55753, 271.28055, 2.56060, 0.00000
 Zone Sizing Information, BUILDING STORY 6 THERMALZONE, Heating, 202498.09017, 253122.61271, 8.71507, 10.89384, BUFFALO NIAGARA INTL AP ANN HTG 99.6% CONDNS DB, 1/21 08:00:00, -16.30000, 9.24091E-004, 5040.55753, 271.28055, 2.56060, 0.00000
! <System Sizing Information>, System Name, Load Type, Peak Load Kind, User Design Capacity, Calc Des Air Flow Rate [m3/s], User Des Air Flow Rate [m3/s], Design Day Name, Date/Time of Peak
 System Sizing Information, 1 ZONE VAV, Cooling, Sensible, 133135.26, 9.88142, 9.88142, BUFFALO NIAGARA INTL AP ANN CLG .4% CONDNS DB=>MWB, 7/21 00:00:00
 System Sizing Information, 1 ZONE VAV, Heating, Sensible, 87831.22, 4.23017, 4.23017, BUFFALO NIAGARA INTL AP ANN HTG 99.6% CONDNS DB, 1/21 01:00:00
 System Sizing Information, 1 ZONE VAV 1, Cooling, Sensible, 211705.88, 15.36821, 15.36821, BUFFALO NIAGARA INTL AP ANN CLG .4% CONDNS DB=>MWB, 7/21 00:00:00
 System Sizing Information, 1 ZONE VAV 1, Heating, Sensible, 87831.22, 5.37936, 5.37936, BUFFALO NIAGARA INTL AP ANN HTG 99.6% CONDNS DB, 1/21 01:00:00
 System Sizing Information, 1 ZONE VAV 2, Cooling, Sensible, 218764.86, 15.27076, 15.27076, BUFFALO NIAGARA INTL AP ANN CLG .4% CONDNS DB=>MWB, 7/21 00:00:00
 System Sizing Information, 1 ZONE VAV 2, Heating, Sensible, 81214.58, 16.82272, 16.82272, BUFFALO NIAGARA INTL AP ANN HTG 99.6% CONDNS DB, 1/21 23:00:00
 System Sizing Information, 1 ZONE VAV 3, Cooling, Sensible, 221112.31, 15.29971, 15.29971, BUFFALO NIAGARA INTL AP ANN CLG .4% CONDNS DB=>MWB, 7/21 00:00:00
 System Sizing Information, 1 ZONE VAV 3, Heating, Sensible, 78572.93, 17.76153, 17.76153, BUFFALO NIAGARA INTL AP ANN HTG 99.6% CONDNS DB, 1/21 23:00:00
 System Sizing Information, 1 ZONE VAV 4, Cooling, Sensible, 235603.22, 17.24089, 17.24089, BUFFALO NIAGARA INTL AP ANN CLG .4% CONDNS DB=>MWB, 7/21 00:00:00
 System Sizing Information, 1 ZONE VAV 4, Heating, Sensible, 87831.22, 7.14624, 7.14624, BUFFALO NIAGARA INTL AP ANN HTG 99.6% CONDNS DB, 1/21 01:00:00
 System Sizing Information, 1 ZONE VAV 5, Cooling, Sensible, 208934.53, 15.32041, 15.32041, BUFFALO NIAGARA INTL AP ANN CLG .4% CONDNS DB=>MWB, 7/21 00:00:00
 System Sizing Information, 1 ZONE VAV 5, Heating, Sensible, 87831.22, 10.89384, 10.89384, BUFFALO NIAGARA INTL AP ANN HTG 99.6% CONDNS DB, 1/21 23:00:00
! <Component Sizing Information>, Component Type, Component Name, Input Field Description, Value
 Component Sizing Information, AirTerminal:SingleDuct:VAV:Reheat, BUILDING STORY 1 THERMALZONE VAV TERMINAL, Design Size Maximum Air Flow Rate [m3/s], 9.94348
 Component Sizing Information, AirTerminal:SingleDuct:VAV:Reheat, BUILDING STORY 1 THERMALZONE VAV TERMINAL, Design Size Constant Minimum Air Flow Fraction, 0.38627
 Component Sizing Information, AirTerminal:SingleDuct:VAV:Reheat, BUILDING STORY 1 THERMALZONE VAV TERMINAL, User-Specified Constant Minimum Air Flow Fraction, 0.30000
 Component Sizing Information, AirTerminal:SingleDuct:VAV:Reheat, BUILDING STORY 1 THERMALZONE VAV TERMINAL, Design Size Minimum Air Flow Rate [m3/s], 2.98304
 Component Sizing Information, AirTerminal:SingleDuct:VAV:Reheat, BUILDING STORY 1 THERMALZONE VAV TERMINAL, Design Size Maximum Flow per Zone Floor Area during Reheat [m3/s-m2], 5.91808E-004
 Component Sizing Information, AirTerminal:SingleDuct:VAV:Reheat, BUILDING STORY 1 THERMALZONE VAV TERMINAL, Design Size Maximum Flow Fraction during Reheat [], 0.30000
 Component Sizing Information, AirTerminal:SingleDuct:VAV:Reheat, BUILDING STORY 1 THERMALZONE VAV TERMINAL, Design Size Maximum Reheat Water Flow Rate [m3/s], 3.03440E-003
 Component Sizing Information, AirTerminal:SingleDuct:VAV:Reheat, BUILDING STORY 1 THERMALZONE VAV TERMINAL, Design Size Reheat Coil Sizing Air Volume Flow Rate [m3/s], 4.23017
 Component Sizing Information, AirTerminal:SingleDuct:VAV:Reheat, BUILDING STORY 1 THERMALZONE VAV TERMINAL, Design Size Reheat Coil Sizing Inlet Air Temperature [C], 12.77778
 Component Sizing Information, AirTerminal:SingleDuct:VAV:Reheat, BUILDING STORY 1 THERMALZONE VAV TERMINAL, Design Size Reheat Coil Sizing Inlet Air Humidity Ratio [kgWater/kgDryAir], 8.00000E-003
 Component Sizing Information, Coil:Heating:Water, BUILDING STORY 1 THERMALZONE REHEAT COIL, Design Size Rated Capacity [W], 138729.06066
 Component Sizing Information, Coil:Heating:Water, BUILDING STORY 1 THERMALZONE REHEAT COIL, Design Size Maximum Water Flow Rate [m3/s], 3.03440E-003
 Component Sizing Information, Coil:Heating:Water, BUILDING STORY 1 THERMALZONE REHEAT COIL, Design Size U-Factor Times Area Value [W/K], 2886.21334
! <Water Heating Coil Capacity Information>,Component Type,Name,Nominal Total Capacity {W}
Water Heating Coil Capacity Information,Coil:Heating:Water,BUILDING STORY 1 THERMALZONE REHEAT COIL,120043.13
 Component Sizing Information, AirTerminal:SingleDuct:VAV:Reheat, BUILDING STORY 2 THERMALZONE VAV TERMINAL, Design Size Maximum Air Flow Rate [m3/s], 15.36821
 Component Sizing Information, AirTerminal:SingleDuct:VAV:Reheat, BUILDING STORY 2 THERMALZONE VAV TERMINAL, Design Size Constant Minimum Air Flow Fraction, 0.24993
 Component Sizing Information, AirTerminal:SingleDuct:VAV:Reheat, BUILDING STORY 2 THERMALZONE VAV TERMINAL, User-Specified Constant Minimum Air Flow Fraction, 0.30000
 Component Sizing Information, AirTerminal:SingleDuct:VAV:Reheat, BUILDING STORY 2 THERMALZONE VAV TERMINAL, Design Size Minimum Air Flow Rate [m3/s], 4.61046
 Component Sizing Information, AirTerminal:SingleDuct:VAV:Reheat, BUILDING STORY 2 THERMALZONE VAV TERMINAL, Design Size Maximum Flow per Zone Floor Area during Reheat [m3/s-m2], 9.14673E-004
 Component Sizing Information, AirTerminal:SingleDuct:VAV:Reheat, BUILDING STORY 2 THERMALZONE VAV TERMINAL, Design Size Maximum Flow Fraction during Reheat [], 0.30000
 Component Sizing Information, AirTerminal:SingleDuct:VAV:Reheat, BUILDING STORY 2 THERMALZONE VAV TERMINAL, Design Size Maximum Reheat Water Flow Rate [m3/s], 3.85136E-003
 Component Sizing Information, AirTerminal:SingleDuct:VAV:Reheat, BUILDING STORY 2 THERMALZONE VAV TERMINAL, Design Size Reheat Coil Sizing Air Volume Flow Rate [m3/s], 5.37936
 Component Sizing Information, AirTerminal:SingleDuct:VAV:Reheat, BUILDING STORY 2 THERMALZONE VAV TERMINAL, Design Size Reheat Coil Sizing Inlet Air Temperature [C], 12.77778
 Component Sizing Information, AirTerminal:SingleDuct:VAV:Reheat, BUILDING STORY 2 THERMALZONE VAV TERMINAL, Design Size Reheat Coil Sizing Inlet Air Humidity Ratio [kgWater/kgDryAir], 8.00000E-003
 Component Sizing Information, Coil:Heating:Water, BUILDING STORY 2 THERMALZONE REHEAT COIL, Design Size Rated Capacity [W], 176079.43267
 Component Sizing Information, Coil:Heating:Water, BUILDING STORY 2 THERMALZONE REHEAT COIL, Design Size Maximum Water Flow Rate [m3/s], 3.85136E-003
 Component Sizing Information, Coil:Heating:Water, BUILDING STORY 2 THERMALZONE REHEAT COIL, Design Size U-Factor Times Area Value [W/K], 3661.16342
Water Heating Coil Capacity Information,Coil:Heating:Water,BUILDING STORY 2 THERMALZONE REHEAT COIL,160729.22
 Component Sizing Information, AirTerminal:SingleDuct:VAV:Reheat, BUILDING STORY 3 THERMALZONE VAV TERMINAL, Design Size Maximum Air Flow Rate [m3/s], 16.82272
 Component Sizing Information, AirTerminal:SingleDuct:VAV:Reheat, BUILDING STORY 3 THERMALZONE VAV TERMINAL, Design Size Constant Minimum Air Flow Fraction, 0.22832
 Component Sizing Information, AirTerminal:SingleDuct:VAV:Reheat, BUILDING STORY 3 THERMALZONE VAV TERMINAL, User-Specified Constant Minimum Air Flow Fraction, 0.30000
 Component Sizing Information, AirTerminal:SingleDuct:VAV:Reheat, BUILDING STORY 3 THERMALZONE VAV TERMINAL, Design Size Minimum Air Flow Rate [m3/s], 5.04682
 Component Sizing Information, AirTerminal:SingleDuct:VAV:Reheat, BUILDING STORY 3 THERMALZONE VAV TERMINAL, Design Size Maximum Flow per Zone Floor Area during Reheat [m3/s-m2], 1.00124E-003
 Component Sizing Information, AirTerminal:SingleDuct:VAV:Reheat, BUILDING STORY 3 THERMALZONE VAV TERMINAL, Design Size Maximum Flow Fraction during Reheat [], 0.30000
 Component Sizing Information, AirTerminal:SingleDuct:VAV:Reheat, BUILDING STORY 3 THERMALZONE VAV TERMINAL, Design Size Maximum Reheat Water Flow Rate [m3/s], 1.19969E-002
 Component Sizing Information, AirTerminal:SingleDuct:VAV:Reheat, BUILDING STORY 3 THERMALZONE VAV TERMINAL, Design Size Reheat Coil Sizing Air Volume Flow Rate [m3/s], 16.82272
 Component Sizing Information, AirTerminal:SingleDuct:VAV:Reheat, BUILDING STORY 3 THERMALZONE VAV TERMINAL, Design Size Reheat Coil Sizing Inlet Air Temperature [C], 12.77778
 Component Sizing Information, AirTerminal:SingleDuct:VAV:Reheat, BUILDING STORY 3 THERMALZONE VAV TERMINAL, Design Size Reheat Coil Sizing Inlet Air Humidity Ratio [kgWater/kgDryAir], 8.00000E-003
 Component Sizing Information, Coil:Heating:Water, BUILDING STORY 3 THERMALZONE REHEAT COIL, Design Size Rated Capacity [W], 548483.14795
 Component Sizing Information, Coil:Heating:Water, BUILDING STORY 3 THERMALZONE REHEAT COIL, Design Size Maximum Water Flow Rate [m3/s], 1.19969E-002
 Component Sizing Information, Coil:Heating:Water, BUILDING STORY 3 THERMALZONE REHEAT COIL, Design Size U-Factor Times Area Value [W/K], 11390.98743
Water Heating Coil Capacity Information,Coil:Heating:Water,BUILDING STORY 3 THERMALZONE REHEAT COIL,324031.20
 Component Sizing Information, AirTerminal:SingleDuct:VAV:Reheat, BUILDING STORY 4 THERMALZONE VAV TERMINAL, Design Size Maximum Air Flow Rate [m3/s], 17.76153
 Component Sizing Information, AirTerminal:SingleDuct:VAV:Reheat, BUILDING STORY 4 THERMALZONE VAV TERMINAL, Design Size Constant Minimum Air Flow Fraction, 0.21625
 Component Sizing Information, AirTerminal:SingleDuct:VAV:Reheat, BUILDING STORY 4 THERMALZONE VAV TERMINAL, User-Specified Constant Minimum Air Flow Fraction, 0.30000
 Component Sizing Information, AirTerminal:SingleDuct:VAV:Reheat, BUILDING STORY 4 THERMALZONE VAV TERMINAL, Design Size Minimum Air Flow Rate [m3/s], 5.32846
 Component Sizing Information, AirTerminal:SingleDuct:VAV:Reheat, BUILDING STORY 4 THERMALZONE VAV TERMINAL, Design Size Maximum Flow per Zone Floor Area during Reheat [m3/s-m2], 1.05712E-003
 Component Sizing Information, AirTerminal:SingleDuct:VAV:Reheat, BUILDING STORY 4 THERMALZONE VAV TERMINAL, Design Size Maximum Flow Fraction during Reheat [], 0.30000
 Component Sizing Information, AirTerminal:SingleDuct:VAV:Reheat, BUILDING STORY 4 THERMALZONE VAV TERMINAL, Design Size Maximum Reheat Water Flow Rate [m3/s], 1.26647E-002
 Component Sizing Information, AirTerminal:SingleDuct:VAV:Reheat, BUILDING STORY 4 THERMALZONE VAV TERMINAL, Design Size Reheat Coil Sizing Air Volume Flow Rate [m3/s], 17.76153
 Component Sizing Information, AirTerminal:SingleDuct:VAV:Reheat, BUILDING STORY 4 THERMALZONE VAV TERMINAL, Design Size Reheat Coil Sizing Inlet Air Temperature [C], 12.77778
 Component Sizing Information, AirTerminal:SingleDuct:VAV:Reheat, BUILDING STORY 4 THERMALZONE VAV TERMINAL, Design Size Reheat Coil Sizing Inlet Air Humidity Ratio [kgWater/kgDryAir], 8.00000E-003
 Component Sizing Information, Coil:Heating:Water, BUILDING STORY 4 THERMALZONE REHEAT COIL, Design Size Rated Capacity [W], 579014.69834
 Component Sizing Information, Coil:Heating:Water, BUILDING STORY 4 THERMALZONE REHEAT COIL, Design Size Maximum Water Flow Rate [m3/s], 1.26647E-002
 Component Sizing Information, Coil:Heating:Water, BUILDING STORY 4 THERMALZONE REHEAT COIL, Design Size U-Factor Times Area Value [W/K], 12024.59393
Water Heating Coil Capacity Information,Coil:Heating:Water,BUILDING STORY 4 THERMALZONE REHEAT COIL,342091.88
 Component Sizing Information, AirTerminal:SingleDuct:VAV:Reheat, BUILDING STORY 5 THERMALZONE VAV TERMINAL, Design Size Maximum Air Flow Rate [m3/s], 17.24089
 Component Sizing Information, AirTerminal:SingleDuct:VAV:Reheat, BUILDING STORY 5 THERMALZONE VAV TERMINAL, Design Size Constant Minimum Air Flow Fraction, 0.22278
 Component Sizing Information, AirTerminal:SingleDuct:VAV:Reheat, BUILDING STORY 5 THERMALZONE VAV TERMINAL, User-Specified Constant Minimum Air Flow Fraction, 0.30000
 Component Sizing Information, AirTerminal:SingleDuct:VAV:Reheat, BUILDING STORY 5 THERMALZONE VAV TERMINAL, Design Size Minimum Air Flow Rate [m3/s], 5.17227
 Component Sizing Information, AirTerminal:SingleDuct:VAV:Reheat, BUILDING STORY 5 THERMALZONE VAV TERMINAL, Design Size Maximum Flow per Zone Floor Area during Reheat [m3/s-m2], 1.02613E-003
 Component Sizing Information, AirTerminal:SingleDuct:VAV:Reheat, BUILDING STORY 5 THERMALZONE VAV TERMINAL, Design Size Maximum Flow Fraction during Reheat [], 0.30000
 Component Sizing Information, AirTerminal:SingleDuct:VAV:Reheat, BUILDING STORY 5 THERMALZONE VAV TERMINAL, Design Size Maximum Reheat Water Flow Rate [m3/s], 5.11087E-003
 Component Sizing Information, AirTerminal:SingleDuct:VAV:Reheat, BUILDING STORY 5 THERMALZONE VAV TERMINAL, Design Size Reheat Coil Sizing Air Volume Flow Rate [m3/s], 7.14624
 Component Sizing Information, AirTerminal:SingleDuct:VAV:Reheat, BUILDING STORY 5 THERMALZONE VAV TERMINAL, Design Size Reheat Coil Sizing Inlet Air Temperature [C], 12.77778
 Component Sizing Information, AirTerminal:SingleDuct:VAV:Reheat, BUILDING STORY 5 THERMALZONE VAV TERMINAL, Design Size Reheat Coil Sizing Inlet Air Humidity Ratio [kgWater/kgDryAir], 8.00000E-003
 Component Sizing Information, Coil:Heating:Water, BUILDING STORY 5 THERMALZONE REHEAT COIL, Design Size Rated Capacity [W], 233662.76175
 Component Sizing Information, Coil:Heating:Water, BUILDING STORY 5 THERMALZONE REHEAT COIL, Design Size Maximum Water Flow Rate [m3/s], 5.11087E-003
 Component Sizing Information, Coil:Heating:Water, BUILDING STORY 5 THERMALZONE REHEAT COIL, Design Size U-Factor Times Area Value [W/K], 4856.91125
Water Heating Coil Capacity Information,Coil:Heating:Water,BUILDING STORY 5 THERMALZONE REHEAT COIL,203822.62
 Component Sizing Information, AirTerminal:SingleDuct:VAV:Reheat, BUILDING STORY 6 THERMALZONE VAV TERMINAL, Design Size Maximum Air Flow Rate [m3/s], 15.32041
 Component Sizing Information, AirTerminal:SingleDuct:VAV:Reheat, BUILDING STORY 6 THERMALZONE VAV TERMINAL, Design Size Constant Minimum Air Flow Fraction, 0.25071
 Component Sizing Information, AirTerminal:SingleDuct:VAV:Reheat, BUILDING STORY 6 THERMALZONE VAV TERMINAL, User-Specified Constant Minimum Air Flow Fraction, 0.30000
 Component Sizing Information, AirTerminal:SingleDuct:VAV:Reheat, BUILDING STORY 6 THERMALZONE VAV TERMINAL, Design Size Minimum Air Flow Rate [m3/s], 4.59612
 Component Sizing Information, AirTerminal:SingleDuct:VAV:Reheat, BUILDING STORY 6 THERMALZONE VAV TERMINAL, Design Size Maximum Flow per Zone Floor Area during Reheat [m3/s-m2], 9.11828E-004
 Component Sizing Information, AirTerminal:SingleDuct:VAV:Reheat, BUILDING STORY 6 THERMALZONE VAV TERMINAL, Design Size Maximum Flow Fraction during Reheat [], 0.30000
 Component Sizing Information, AirTerminal:SingleDuct:VAV:Reheat, BUILDING STORY 6 THERMALZONE VAV TERMINAL, Design Size Maximum Reheat Water Flow Rate [m3/s], 7.78078E-003
 Component Sizing Information, AirTerminal:SingleDuct:VAV:Reheat, BUILDING STORY 6 THERMALZONE VAV TERMINAL, Design Size Reheat Coil Sizing Air Volume Flow Rate [m3/s], 10.89384
 Component Sizing Information, AirTerminal:SingleDuct:VAV:Reheat, BUILDING STORY 6 THERMALZONE VAV TERMINAL, Design Size Reheat Coil Sizing Inlet Air Temperature [C], 12.77778
 Component Sizing Information, AirTerminal:SingleDuct:VAV:Reheat, BUILDING STORY 6 THERMALZONE VAV TERMINAL, Design Size Reheat Coil Sizing Inlet Air Humidity Ratio [kgWater/kgDryAir], 8.00000E-003
 Component Sizing Information, Coil:Heating:Water, BUILDING STORY 6 THERMALZONE REHEAT COIL, Design Size Rated Capacity [W], 355727.82325
 Component Sizing Information, Coil:Heating:Water, BUILDING STORY 6 THERMALZONE REHEAT COIL, Design Size Maximum Water Flow Rate [m3/s], 7.78078E-003
 Component Sizing Information, Coil:Heating:Water, BUILDING STORY 6 THERMALZONE REHEAT COIL, Design Size U-Factor Times Area Value [W/K], 7391.22109
Water Heating Coil Capacity Information,Coil:Heating:Water,BUILDING STORY 6 THERMALZONE REHEAT COIL,252923.50
 Component Sizing Information, AirLoopHVAC, 1 ZONE VAV, Sum of Air Terminal Maximum Heating Flow Rates [m3/s], 2.98304
 Component Sizing Information, AirLoopHVAC, 1 ZONE VAV, Sum of Air Terminal Minimum Heating Flow Rates [m3/s], 2.98304
 Component Sizing Information, AirLoopHVAC, 1 ZONE VAV, Sum of Air Terminal Maximum Flow Rates [m3/s], 9.94348
 Component Sizing Information, AirLoopHVAC, 1 ZONE VAV, Adjusted Heating Design Air Flow Rate [m3/s], 4.23017
 Component Sizing Information, AirLoopHVAC, 1 ZONE VAV, Adjusted Cooling Design Air Flow Rate [m3/s], 9.88142
 Component Sizing Information, AirLoopHVAC, 1 ZONE VAV, Adjusted Main Design Air Flow Rate [m3/s], 9.88142
 Component Sizing Information, AirLoopHVAC, 1 ZONE VAV, User Heating Air Flow Ratio [], 0.30000
 Component Sizing Information, AirLoopHVAC, 1 ZONE VAV, Calculated Heating Air Flow Ratio [], 0.42809
 Component Sizing Information, AirLoopHVAC, 1 ZONE VAV 1, Sum of Air Terminal Maximum Heating Flow Rates [m3/s], 4.61046
 Component Sizing Information, AirLoopHVAC, 1 ZONE VAV 1, Sum of Air Terminal Minimum Heating Flow Rates [m3/s], 4.61046
 Component Sizing Information, AirLoopHVAC, 1 ZONE VAV 1, Sum of Air Terminal Maximum Flow Rates [m3/s], 15.36821
 Component Sizing Information, AirLoopHVAC, 1 ZONE VAV 1, Adjusted Heating Design Air Flow Rate [m3/s], 5.37936
 Component Sizing Information, AirLoopHVAC, 1 ZONE VAV 1, Adjusted Cooling Design Air Flow Rate [m3/s], 15.36821
 Component Sizing Information, AirLoopHVAC, 1 ZONE VAV 1, Adjusted Main Design Air Flow Rate [m3/s], 15.36821
 Component Sizing Information, AirLoopHVAC, 1 ZONE VAV 1, User Heating Air Flow Ratio [], 0.30000
 Component Sizing Information, AirLoopHVAC, 1 ZONE VAV 1, Calculated Heating Air Flow Ratio [], 0.35003
 Component Sizing Information, AirLoopHVAC, 1 ZONE VAV 2, Sum of Air Terminal Maximum Heating Flow Rates [m3/s], 5.04682
 Component Sizing Information, AirLoopHVAC, 1 ZONE VAV 2, Sum of Air Terminal Minimum Heating Flow Rates [m3/s], 5.04682
 Component Sizing Information, AirLoopHVAC, 1 ZONE VAV 2, Sum of Air Terminal Maximum Flow Rates [m3/s], 16.82272
 Component Sizing Information, AirLoopHVAC, 1 ZONE VAV 2, Adjusted Heating Design Air Flow Rate [m3/s], 16.82272
 Component Sizing Information, AirLoopHVAC, 1 ZONE VAV 2, Adjusted Cooling Design Air Flow Rate [m3/s], 15.27076
 Component Sizing Information, AirLoopHVAC, 1 ZONE VAV 2, Adjusted Main Design Air Flow Rate [m3/s], 16.82272
 Component Sizing Information, AirLoopHVAC, 1 ZONE VAV 2, User Heating Air Flow Ratio [], 0.30000
 Component Sizing Information, AirLoopHVAC, 1 ZONE VAV 2, Calculated Heating Air Flow Ratio [], 1.00000
 Component Sizing Information, AirLoopHVAC, 1 ZONE VAV 3, Sum of Air Terminal Maximum Heating Flow Rates [m3/s], 5.32846
 Component Sizing Information, AirLoopHVAC, 1 ZONE VAV 3, Sum of Air Terminal Minimum Heating Flow Rates [m3/s], 5.32846
 Component Sizing Information, AirLoopHVAC, 1 ZONE VAV 3, Sum of Air Terminal Maximum Flow Rates [m3/s], 17.76153
 Component Sizing Information, AirLoopHVAC, 1 ZONE VAV 3, Adjusted Heating Design Air Flow Rate [m3/s], 17.76153
 Component Sizing Information, AirLoopHVAC, 1 ZONE VAV 3, Adjusted Cooling Design Air Flow Rate [m3/s], 15.29971
 Component Sizing Information, AirLoopHVAC, 1 ZONE VAV 3, Adjusted Main Design Air Flow Rate [m3/s], 17.76153
 Component Sizing Information, AirLoopHVAC, 1 ZONE VAV 3, User Heating Air Flow Ratio [], 0.30000
 Component Sizing Information, AirLoopHVAC, 1 ZONE VAV 3, Calculated Heating Air Flow Ratio [], 1.00000
 Component Sizing Information, AirLoopHVAC, 1 ZONE VAV 4, Sum of Air Terminal Maximum Heating Flow Rates [m3/s], 5.17227
 Component Sizing Information, AirLoopHVAC, 1 ZONE VAV 4, Sum of Air Terminal Minimum Heating Flow Rates [m3/s], 5.17227
 Component Sizing Information, AirLoopHVAC, 1 ZONE VAV 4, Sum of Air Terminal Maximum Flow Rates [m3/s], 17.24089
 Component Sizing Information, AirLoopHVAC, 1 ZONE VAV 4, Adjusted Heating Design Air Flow Rate [m3/s], 7.14624
 Component Sizing Information, AirLoopHVAC, 1 ZONE VAV 4, Adjusted Cooling Design Air Flow Rate [m3/s], 17.24089
 Component Sizing Information, AirLoopHVAC, 1 ZONE VAV 4, Adjusted Main Design Air Flow Rate [m3/s], 17.24089
 Component Sizing Information, AirLoopHVAC, 1 ZONE VAV 4, User Heating Air Flow Ratio [], 0.30000
 Component Sizing Information, AirLoopHVAC, 1 ZONE VAV 4, Calculated Heating Air Flow Ratio [], 0.41449
 Component Sizing Information, AirLoopHVAC, 1 ZONE VAV 5, Sum of Air Terminal Maximum Heating Flow Rates [m3/s], 4.59612
 Component Sizing Information, AirLoopHVAC, 1 ZONE VAV 5, Sum of Air Terminal Minimum Heating Flow Rates [m3/s], 4.59612
 Component Sizing Information, AirLoopHVAC, 1 ZONE VAV 5, Sum of Air Terminal Maximum Flow Rates [m3/s], 15.32041
 Component Sizing Information, AirLoopHVAC, 1 ZONE VAV 5, Adjusted Heating Design Air Flow Rate [m3/s], 10.89384
 Component Sizing Information, AirLoopHVAC, 1 ZONE VAV 5, Adjusted Cooling Design Air Flow Rate [m3/s], 15.32041
 Component Sizing Information, AirLoopHVAC, 1 ZONE VAV 5, Adjusted Main Design Air Flow Rate [m3/s], 15.32041
 Component Sizing Information, AirLoopHVAC, 1 ZONE VAV 5, User Heating Air Flow Ratio [], 0.30000
 Component Sizing Information, AirLoopHVAC, 1 ZONE VAV 5, Calculated Heating Air Flow Ratio [], 0.71107
 Component Sizing Information, AirLoopHVAC, 1 ZONE VAV, Design Supply Air Flow Rate [m3/s], 9.88142
 Component Sizing Information, AirLoopHVAC, 1 ZONE VAV 1, Design Supply Air Flow Rate [m3/s], 15.36821
 Component Sizing Information, AirLoopHVAC, 1 ZONE VAV 2, Design Supply Air Flow Rate [m3/s], 16.82272
 Component Sizing Information, AirLoopHVAC, 1 ZONE VAV 3, Design Supply Air Flow Rate [m3/s], 17.76153
 Component Sizing Information, AirLoopHVAC, 1 ZONE VAV 4, Design Supply Air Flow Rate [m3/s], 17.24089
 Component Sizing Information, AirLoopHVAC, 1 ZONE VAV 5, Design Supply Air Flow Rate [m3/s], 15.32041
!<Controller:MechanicalVentilation>,Name,Availability Schedule Name,Demand Controlled Ventilation {Yes/No},System Outdoor Air Method,Zone Maximum Outdoor Air Fraction,Number of Zones,Zone Name,DSOA Name,DSZAD Name
 Controller:MechanicalVentilation,1 ZONE VAV VENT CONTROLLER,1 ZONE VAV OCC SCH,No,VentilationRateProcedure,1.00,1,BUILDING STORY 1 THERMALZONE,BLENDED OA 1,
 Controller:MechanicalVentilation,1 ZONE VAV 1 VENT CONTROLLER,1 ZONE VAV 1 OCC SCH,No,VentilationRateProcedure,1.00,1,BUILDING STORY 2 THERMALZONE,BLENDED OA 3,
 Controller:MechanicalVentilation,1 ZONE VAV 2 VENT CONTROLLER,1 ZONE VAV 2 OCC SCH,No,VentilationRateProcedure,1.00,1,BUILDING STORY 3 THERMALZONE,BLENDED OA 4,
 Controller:MechanicalVentilation,1 ZONE VAV 3 VENT CONTROLLER,1 ZONE VAV 3 OCC SCH,No,VentilationRateProcedure,1.00,1,BUILDING STORY 4 THERMALZONE,BLENDED OA 2,
 Controller:MechanicalVentilation,1 ZONE VAV 4 VENT CONTROLLER,1 ZONE VAV 4 OCC SCH,No,VentilationRateProcedure,1.00,1,BUILDING STORY 5 THERMALZONE,BLENDED OA,
 Controller:MechanicalVentilation,1 ZONE VAV 5 VENT CONTROLLER,1 ZONE VAV 5 OCC SCH,No,VentilationRateProcedure,1.00,1,BUILDING STORY 6 THERMALZONE,BLENDED OA 5,
 Component Sizing Information, Controller:OutdoorAir, 1 ZONE VAV OA CONTROLLER, Maximum Outdoor Air Flow Rate [m3/s], 9.88142
 Component Sizing Information, Controller:OutdoorAir, 1 ZONE VAV OA CONTROLLER, Minimum Outdoor Air Flow Rate [m3/s], 2.56060
 Component Sizing Information, Coil:Cooling:Water, 1 ZONE VAV CLG COIL, Design Size Design Inlet Air Temperature [C], 24.19941
 Component Sizing Information, Coil:Cooling:Water, 1 ZONE VAV CLG COIL, Design Size Design Inlet Water Temperature [C], 6.66667
 Component Sizing Information, Coil:Cooling:Water, 1 ZONE VAV CLG COIL, Design Size Design Outlet Air Temperature [C], 10.59896
 Component Sizing Information, Coil:Cooling:Water, 1 ZONE VAV CLG COIL, Design Size Design Inlet Air Humidity Ratio [kgWater/kgDryAir], 1.07180E-002
 Component Sizing Information, Coil:Cooling:Water, 1 ZONE VAV CLG COIL, Design Size Design Outlet Air Humidity Ratio [kgWater/kgDryAir], 8.50000E-003
 Component Sizing Information, Coil:Cooling:Water, 1 ZONE VAV CLG COIL, Design Size Design Coil Load [W], 226526.79132
 Component Sizing Information, Coil:Cooling:Water, 1 ZONE VAV CLG COIL, Design Size Design Water Flow Rate [m3/s], 9.61789E-003
 Component Sizing Information, Coil:Cooling:Water, 1 ZONE VAV CLG COIL, Design Size Design Air Flow Rate [m3/s], 9.88142
! <Water Cooling Coil Capacity Information>,Component Type,Name,Nominal Total Capacity {W},Nominal Sensible Capacity {W},Nominal Latent Capacity {W},Nominal Sensible Heat Ratio, Nominal Coil UA Value {W/C}, Nominal Coil Surface Area {m2}
Water Cooling Coil Capacity Information,Coil:Cooling:Water,1 ZONE VAV CLG COIL,260382.39,175510.45,84871.94,0.67,28424.76,288.30
 Component Sizing Information, Coil:Heating:Water, 1 ZONE VAV MAIN HTG COIL, Design Size Rated Capacity [W], 83915.91260
 Component Sizing Information, Coil:Heating:Water, 1 ZONE VAV MAIN HTG COIL, Design Size Maximum Water Flow Rate [m3/s], 1.83548E-003
 Component Sizing Information, Coil:Heating:Water, 1 ZONE VAV MAIN HTG COIL, Design Size U-Factor Times Area Value [W/K], 1140.82208
Water Heating Coil Capacity Information,Coil:Heating:Water,1 ZONE VAV MAIN HTG COIL,59062.47
 Component Sizing Information, Fan:VariableVolume, 1 ZONE VAV FAN, Design Size Maximum Flow Rate [m3/s], 9.88142
 Component Sizing Information, Controller:WaterCoil, 1 ZONE VAV CLG COIL CONTROLLER, Maximum Actuated Flow [m3/s], 9.61789E-003
 Component Sizing Information, Controller:WaterCoil, 1 ZONE VAV CLG COIL CONTROLLER, Controller Convergence Tolerance, 4.95109E-005
 Component Sizing Information, Controller:WaterCoil, 1 ZONE VAV MAIN HTG COIL CONTROLLER, Maximum Actuated Flow [m3/s], 1.83548E-003
 Component Sizing Information, Controller:OutdoorAir, 1 ZONE VAV 1 OA CONTROLLER, Maximum Outdoor Air Flow Rate [m3/s], 15.36821
 Component Sizing Information, Controller:OutdoorAir, 1 ZONE VAV 1 OA CONTROLLER, Minimum Outdoor Air Flow Rate [m3/s], 2.56060
 Component Sizing Information, Coil:Cooling:Water, 1 ZONE VAV 1 CLG COIL, Design Size Design Inlet Air Temperature [C], 24.45567
 Component Sizing Information, Coil:Cooling:Water, 1 ZONE VAV 1 CLG COIL, Design Size Design Inlet Water Temperature [C], 6.66667
 Component Sizing Information, Coil:Cooling:Water, 1 ZONE VAV 1 CLG COIL, Design Size Design Outlet Air Temperature [C], 10.86330
 Component Sizing Information, Coil:Cooling:Water, 1 ZONE VAV 1 CLG COIL, Design Size Design Inlet Air Humidity Ratio [kgWater/kgDryAir], 9.80187E-003
 Component Sizing Information, Coil:Cooling:Water, 1 ZONE VAV 1 CLG COIL, Design Size Design Outlet Air Humidity Ratio [kgWater/kgDryAir], 8.50000E-003
 Component Sizing Information, Coil:Cooling:Water, 1 ZONE VAV 1 CLG COIL, Design Size Design Coil Load [W], 310090.91360
 Component Sizing Information, Coil:Cooling:Water, 1 ZONE VAV 1 CLG COIL, Design Size Design Water Flow Rate [m3/s], 1.31659E-002
 Component Sizing Information, Coil:Cooling:Water, 1 ZONE VAV 1 CLG COIL, Design Size Design Air Flow Rate [m3/s], 15.36821
Water Cooling Coil Capacity Information,Coil:Cooling:Water,1 ZONE VAV 1 CLG COIL,379062.80,260817.27,118245.53,0.69,40532.88,411.11
 Component Sizing Information, Coil:Heating:Water, 1 ZONE VAV 1 MAIN HTG COIL, Design Size Rated Capacity [W], 67958.73540
 Component Sizing Information, Coil:Heating:Water, 1 ZONE VAV 1 MAIN HTG COIL, Design Size Maximum Water Flow Rate [m3/s], 1.48645E-003
 Component Sizing Information, Coil:Heating:Water, 1 ZONE VAV 1 MAIN HTG COIL, Design Size U-Factor Times Area Value [W/K], 1011.49884
Water Heating Coil Capacity Information,Coil:Heating:Water,1 ZONE VAV 1 MAIN HTG COIL,54539.34
 Component Sizing Information, Fan:VariableVolume, 1 ZONE VAV 1 FAN, Design Size Maximum Flow Rate [m3/s], 15.36821
 Component Sizing Information, Controller:WaterCoil, 1 ZONE VAV 1 CLG COIL CONTROLLER, Maximum Actuated Flow [m3/s], 1.31659E-002
 Component Sizing Information, Controller:WaterCoil, 1 ZONE VAV 1 CLG COIL CONTROLLER, Controller Convergence Tolerance, 3.61686E-005
 Component Sizing Information, Controller:WaterCoil, 1 ZONE VAV 1 MAIN HTG COIL CONTROLLER, Maximum Actuated Flow [m3/s], 1.48645E-003
 Component Sizing Information, Controller:OutdoorAir, 1 ZONE VAV 2 OA CONTROLLER, Maximum Outdoor Air Flow Rate [m3/s], 16.82272
 Component Sizing Information, Controller:OutdoorAir, 1 ZONE VAV 2 OA CONTROLLER, Minimum Outdoor Air Flow Rate [m3/s], 2.56060
 Component Sizing Information, Coil:Cooling:Water, 1 ZONE VAV 2 CLG COIL, Design Size Design Inlet Air Temperature [C], 25.05899
 Component Sizing Information, Coil:Cooling:Water, 1 ZONE VAV 2 CLG COIL, Design Size Design Inlet Water Temperature [C], 6.66667
 Component Sizing Information, Coil:Cooling:Water, 1 ZONE VAV 2 CLG COIL, Design Size Design Outlet Air Temperature [C], 10.86511
 Component Sizing Information, Coil:Cooling:Water, 1 ZONE VAV 2 CLG COIL, Design Size Design Inlet Air Humidity Ratio [kgWater/kgDryAir], 1.03229E-002
 Component Sizing Information, Coil:Cooling:Water, 1 ZONE VAV 2 CLG COIL, Design Size Design Outlet Air Humidity Ratio [kgWater/kgDryAir], 8.50000E-003
 Component Sizing Information, Coil:Cooling:Water, 1 ZONE VAV 2 CLG COIL, Design Size Design Coil Load [W], 377803.21738
 Component Sizing Information, Coil:Cooling:Water, 1 ZONE VAV 2 CLG COIL, Design Size Design Water Flow Rate [m3/s], 1.60408E-002
 Component Sizing Information, Coil:Cooling:Water, 1 ZONE VAV 2 CLG COIL, Design Size Design Air Flow Rate [m3/s], 16.82272
Water Cooling Coil Capacity Information,Coil:Cooling:Water,1 ZONE VAV 2 CLG COIL,434073.53,294209.16,139864.37,0.68,46320.54,469.81
 Component Sizing Information, Coil:Heating:Water, 1 ZONE VAV 2 MAIN HTG COIL, Design Size Rated Capacity [W], 76716.18025
 Component Sizing Information, Coil:Heating:Water, 1 ZONE VAV 2 MAIN HTG COIL, Design Size Maximum Water Flow Rate [m3/s], 1.67800E-003
 Component Sizing Information, Coil:Heating:Water, 1 ZONE VAV 2 MAIN HTG COIL, Design Size U-Factor Times Area Value [W/K], 1137.39238
Water Heating Coil Capacity Information,Coil:Heating:Water,1 ZONE VAV 2 MAIN HTG COIL,61256.51
 Component Sizing Information, Fan:VariableVolume, 1 ZONE VAV 2 FAN, Design Size Maximum Flow Rate [m3/s], 16.82272
 Component Sizing Information, Controller:WaterCoil, 1 ZONE VAV 2 CLG COIL CONTROLLER, Maximum Actuated Flow [m3/s], 1.60408E-002
 Component Sizing Information, Controller:WaterCoil, 1 ZONE VAV 2 CLG COIL CONTROLLER, Controller Convergence Tolerance, 2.96862E-005
 Component Sizing Information, Controller:WaterCoil, 1 ZONE VAV 2 MAIN HTG COIL CONTROLLER, Maximum Actuated Flow [m3/s], 1.67800E-003
 Component Sizing Information, Controller:OutdoorAir, 1 ZONE VAV 3 OA CONTROLLER, Maximum Outdoor Air Flow Rate [m3/s], 17.76153
 Component Sizing Information, Controller:OutdoorAir, 1 ZONE VAV 3 OA CONTROLLER, Minimum Outdoor Air Flow Rate [m3/s], 2.56060
 Component Sizing Information, Coil:Cooling:Water, 1 ZONE VAV 3 CLG COIL, Design Size Design Inlet Air Temperature [C], 25.04597
 Component Sizing Information, Coil:Cooling:Water, 1 ZONE VAV 3 CLG COIL, Design Size Design Inlet Water Temperature [C], 6.66667
 Component Sizing Information, Coil:Cooling:Water, 1 ZONE VAV 3 CLG COIL, Design Size Design Outlet Air Temperature [C], 10.86528
 Component Sizing Information, Coil:Cooling:Water, 1 ZONE VAV 3 CLG COIL, Design Size Design Inlet Air Humidity Ratio [kgWater/kgDryAir], 1.03726E-002
 Component Sizing Information, Coil:Cooling:Water, 1 ZONE VAV 3 CLG COIL, Design Size Design Outlet Air Humidity Ratio [kgWater/kgDryAir], 8.50000E-003
 Component Sizing Information, Coil:Cooling:Water, 1 ZONE VAV 3 CLG COIL, Design Size Design Coil Load [W], 401245.17999
 Component Sizing Information, Coil:Cooling:Water, 1 ZONE VAV 3 CLG COIL, Design Size Design Water Flow Rate [m3/s], 1.70361E-002
 Component Sizing Information, Coil:Cooling:Water, 1 ZONE VAV 3 CLG COIL, Design Size Design Air Flow Rate [m3/s], 17.76153
Water Cooling Coil Capacity Information,Coil:Cooling:Water,1 ZONE VAV 3 CLG COIL,459505.76,311187.06,148318.70,0.68,49054.35,497.54
 Component Sizing Information, Coil:Heating:Water, 1 ZONE VAV 3 MAIN HTG COIL, Design Size Rated Capacity [W], 75524.07164
 Component Sizing Information, Coil:Heating:Water, 1 ZONE VAV 3 MAIN HTG COIL, Design Size Maximum Water Flow Rate [m3/s], 1.65193E-003
 Component Sizing Information, Coil:Heating:Water, 1 ZONE VAV 3 MAIN HTG COIL, Design Size U-Factor Times Area Value [W/K], 1128.76590
Water Heating Coil Capacity Information,Coil:Heating:Water,1 ZONE VAV 3 MAIN HTG COIL,60953.92
 Component Sizing Information, Fan:VariableVolume, 1 ZONE VAV 3 FAN, Design Size Maximum Flow Rate [m3/s], 17.76153
 Component Sizing Information, Controller:WaterCoil, 1 ZONE VAV 3 CLG COIL CONTROLLER, Maximum Actuated Flow [m3/s], 1.70361E-002
 Component Sizing Information, Controller:WaterCoil, 1 ZONE VAV 3 CLG COIL CONTROLLER, Controller Convergence Tolerance, 2.79519E-005
 Component Sizing Information, Controller:WaterCoil, 1 ZONE VAV 3 MAIN HTG COIL CONTROLLER, Maximum Actuated Flow [m3/s], 1.65193E-003
 Component Sizing Information, Controller:OutdoorAir, 1 ZONE VAV 4 OA CONTROLLER, Maximum Outdoor Air Flow Rate [m3/s], 17.24089
 Component Sizing Information, Controller:OutdoorAir, 1 ZONE VAV 4 OA CONTROLLER, Minimum Outdoor Air Flow Rate [m3/s], 2.56060
 Component Sizing Information, Coil:Cooling:Water, 1 ZONE VAV 4 CLG COIL, Design Size Design Inlet Air Temperature [C], 24.36224
 Component Sizing Information, Coil:Cooling:Water, 1 ZONE VAV 4 CLG COIL, Design Size Design Inlet Water Temperature [C], 6.66667
 Component Sizing Information, Coil:Cooling:Water, 1 ZONE VAV 4 CLG COIL, Design Size Design Outlet Air Temperature [C], 10.86378
 Component Sizing Information, Coil:Cooling:Water, 1 ZONE VAV 4 CLG COIL, Design Size Design Inlet Air Humidity Ratio [kgWater/kgDryAir], 9.94075E-003
 Component Sizing Information, Coil:Cooling:Water, 1 ZONE VAV 4 CLG COIL, Design Size Design Outlet Air Humidity Ratio [kgWater/kgDryAir], 8.50000E-003
 Component Sizing Information, Coil:Cooling:Water, 1 ZONE VAV 4 CLG COIL, Design Size Design Coil Load [W], 353089.63427
 Component Sizing Information, Coil:Cooling:Water, 1 ZONE VAV 4 CLG COIL, Design Size Design Water Flow Rate [m3/s], 1.49915E-002
 Component Sizing Information, Coil:Cooling:Water, 1 ZONE VAV 4 CLG COIL, Design Size Design Air Flow Rate [m3/s], 17.24089
Water Cooling Coil Capacity Information,Coil:Cooling:Water,1 ZONE VAV 4 CLG COIL,428389.68,294056.28,134333.41,0.69,45855.99,465.10
 Component Sizing Information, Coil:Heating:Water, 1 ZONE VAV 4 MAIN HTG COIL, Design Size Rated Capacity [W], 78682.53812
 Component Sizing Information, Coil:Heating:Water, 1 ZONE VAV 4 MAIN HTG COIL, Design Size Maximum Water Flow Rate [m3/s], 1.72101E-003
 Component Sizing Information, Coil:Heating:Water, 1 ZONE VAV 4 MAIN HTG COIL, Design Size U-Factor Times Area Value [W/K], 1166.43596
Water Heating Coil Capacity Information,Coil:Heating:Water,1 ZONE VAV 4 MAIN HTG COIL,62818.85
 Component Sizing Information, Fan:VariableVolume, 1 ZONE VAV 4 FAN, Design Size Maximum Flow Rate [m3/s], 17.24089
 Component Sizing Information, Controller:WaterCoil, 1 ZONE VAV 4 CLG COIL CONTROLLER, Maximum Actuated Flow [m3/s], 1.49915E-002
 Component Sizing Information, Controller:WaterCoil, 1 ZONE VAV 4 CLG COIL CONTROLLER, Controller Convergence Tolerance, 3.17640E-005
 Component Sizing Information, Controller:WaterCoil, 1 ZONE VAV 4 MAIN HTG COIL CONTROLLER, Maximum Actuated Flow [m3/s], 1.72101E-003
 Component Sizing Information, Controller:OutdoorAir, 1 ZONE VAV 5 OA CONTROLLER, Maximum Outdoor Air Flow Rate [m3/s], 15.32041
 Component Sizing Information, Controller:OutdoorAir, 1 ZONE VAV 5 OA CONTROLLER, Minimum Outdoor Air Flow Rate [m3/s], 2.56060
 Component Sizing Information, Coil:Cooling:Water, 1 ZONE VAV 5 CLG COIL, Design Size Design Inlet Air Temperature [C], 24.33875
 Component Sizing Information, Coil:Cooling:Water, 1 ZONE VAV 5 CLG COIL, Design Size Design Inlet Water Temperature [C], 6.66667
 Component Sizing Information, Coil:Cooling:Water, 1 ZONE VAV 5 CLG COIL, Design Size Design Outlet Air Temperature [C], 10.86448
 Component Sizing Information, Coil:Cooling:Water, 1 ZONE VAV 5 CLG COIL, Design Size Design Inlet Air Humidity Ratio [kgWater/kgDryAir], 1.01401E-002
 Component Sizing Information, Coil:Cooling:Water, 1 ZONE VAV 5 CLG COIL, Design Size Design Outlet Air Humidity Ratio [kgWater/kgDryAir], 8.50000E-003
 Component Sizing Information, Coil:Cooling:Water, 1 ZONE VAV 5 CLG COIL, Design Size Design Coil Load [W], 322443.67117
 Component Sizing Information, Coil:Cooling:Water, 1 ZONE VAV 5 CLG COIL, Design Size Design Water Flow Rate [m3/s], 1.36903E-002
 Component Sizing Information, Coil:Cooling:Water, 1 ZONE VAV 5 CLG COIL, Design Size Design Air Flow Rate [m3/s], 15.32041
Water Cooling Coil Capacity Information,Coil:Cooling:Water,1 ZONE VAV 5 CLG COIL,385492.35,263520.29,121972.05,0.68,41299.43,418.88
 Component Sizing Information, Coil:Heating:Water, 1 ZONE VAV 5 MAIN HTG COIL, Design Size Rated Capacity [W], 74178.27275
 Component Sizing Information, Coil:Heating:Water, 1 ZONE VAV 5 MAIN HTG COIL, Design Size Maximum Water Flow Rate [m3/s], 1.62249E-003
 Component Sizing Information, Coil:Heating:Water, 1 ZONE VAV 5 MAIN HTG COIL, Design Size U-Factor Times Area Value [W/K], 1092.12424
Water Heating Coil Capacity Information,Coil:Heating:Water,1 ZONE VAV 5 MAIN HTG COIL,58667.94
 Component Sizing Information, Fan:VariableVolume, 1 ZONE VAV 5 FAN, Design Size Maximum Flow Rate [m3/s], 15.32041
 Component Sizing Information, Controller:WaterCoil, 1 ZONE VAV 5 CLG COIL CONTROLLER, Maximum Actuated Flow [m3/s], 1.36903E-002
 Component Sizing Information, Controller:WaterCoil, 1 ZONE VAV 5 CLG COIL CONTROLLER, Controller Convergence Tolerance, 3.47830E-005
 Component Sizing Information, Controller:WaterCoil, 1 ZONE VAV 5 MAIN HTG COIL CONTROLLER, Maximum Actuated Flow [m3/s], 1.62249E-003
