Program Version,EnergyPlus, Version 9.4.0-998c4b761e, YMD=2021.03.24 06:33
! <Version>, Version ID
 Version, 9.4
! <Timesteps per Hour>, #TimeSteps, Minutes per TimeStep {minutes}
 Timesteps per Hour,  1, 60
! <System Convergence Limits>, Minimum System TimeStep {minutes}, Max HVAC Iterations, Minimum Plant Iterations, Maximum Plant Iterations
 System Convergence Limits, 1, 20, 2, 8
! <Simulation Control>, Do Zone Sizing, Do System Sizing, Do Plant Sizing, Do Design Days, Do Weather Simulation, Do HVAC Sizing Simulation
 Simulation Control, Yes, Yes, Yes, Yes, No, Yes
! <Performance Precision Tradeoffs>, Use Coil Direct Simulation, Zone Radiant Exchange Algorithm, Override Mode, Number of Timestep In Hour, Force Euler Method, Minimum Number of Warmup Days, Force Suppress All Begin Environment Resets, Minimum System Timestep, MaxZoneTempDiff, MaxAllowedDelTemp
 Performance Precision Tradeoffs, No, ScriptF, Normal, 1, No, 1, No, 1.0, 0.300, 2.0000E-003
! <Output Reporting Tolerances>, Tolerance for Time Heating Setpoint Not Met, Tolerance for Zone Cooling Setpoint Not Met Time
 Output Reporting Tolerances, 0.556, 0.556, 
! <Site:GroundTemperature:BuildingSurface>,Jan{C},Feb{C},Mar{C},Apr{C},May{C},Jun{C},Jul{C},Aug{C},Sep{C},Oct{C},Nov{C},Dec{C}
 Site:GroundTemperature:BuildingSurface,  18.00,  18.00,  18.00,  18.00,  18.00,  18.00,  18.00,  18.00,  18.00,  18.00,  18.00,  18.00
! <Site:GroundTemperature:FCfactorMethod>,Jan{C},Feb{C},Mar{C},Apr{C},May{C},Jun{C},Jul{C},Aug{C},Sep{C},Oct{C},Nov{C},Dec{C}
 Site:GroundTemperature:FCfactorMethod,   7.40,   0.00,  -7.60, -12.60,  -7.70,   0.30,   7.00,  14.20,  19.20,  20.90,  20.00,  15.40
! <Site:GroundTemperature:Shallow>,Jan{C},Feb{C},Mar{C},Apr{C},May{C},Jun{C},Jul{C},Aug{C},Sep{C},Oct{C},Nov{C},Dec{C}
 Site:GroundTemperature:Shallow,  13.00,  13.00,  13.00,  13.00,  13.00,  13.00,  13.00,  13.00,  13.00,  13.00,  13.00,  13.00
! <Site:GroundTemperature:Deep>,Jan{C},Feb{C},Mar{C},Apr{C},May{C},Jun{C},Jul{C},Aug{C},Sep{C},Oct{C},Nov{C},Dec{C}
 Site:GroundTemperature:Deep,  16.00,  16.00,  16.00,  16.00,  16.00,  16.00,  16.00,  16.00,  16.00,  16.00,  16.00,  16.00
! <Site:GroundReflectance>,Jan{dimensionless},Feb{dimensionless},Mar{dimensionless},Apr{dimensionless},May{dimensionless},Jun{dimensionless},Jul{dimensionless},Aug{dimensionless},Sep{dimensionless},Oct{dimensionless},Nov{dimensionless},Dec{dimensionless}
 Site:GroundReflectance,  0.20,  0.20,  0.20,  0.20,  0.20,  0.20,  0.20,  0.20,  0.20,  0.20,  0.20,  0.20
! <Site:GroundReflectance:SnowModifier>, Normal, Daylighting {dimensionless}
 Site:GroundReflectance:SnowModifier,   1.000,   1.000
! <Site:GroundReflectance:Snow>,Jan{dimensionless},Feb{dimensionless},Mar{dimensionless},Apr{dimensionless},May{dimensionless},Jun{dimensionless},Jul{dimensionless},Aug{dimensionless},Sep{dimensionless},Oct{dimensionless},Nov{dimensionless},Dec{dimensionless}
 Site:GroundReflectance:Snow,  0.20,  0.20,  0.20,  0.20,  0.20,  0.20,  0.20,  0.20,  0.20,  0.20,  0.20,  0.20
! <Site:GroundReflectance:Snow:Daylighting>,Jan{dimensionless},Feb{dimensionless},Mar{dimensionless},Apr{dimensionless},May{dimensionless},Jun{dimensionless},Jul{dimensionless},Aug{dimensionless},Sep{dimensionless},Oct{dimensionless},Nov{dimensionless},Dec{dimensionless}
 Site:GroundReflectance:Snow:Daylighting,  0.20,  0.20,  0.20,  0.20,  0.20,  0.20,  0.20,  0.20,  0.20,  0.20,  0.20,  0.20
! <Environment:Weather Station>,Wind Sensor Height Above Ground {m},Wind Speed Profile Exponent {},Wind Speed Profile Boundary Layer Thickness {m},Air Temperature Sensor Height Above Ground {m},Wind Speed Modifier Coefficient-Internal,Temperature Modifier Coefficient-Internal
Environment:Weather Station,10.000,0.140,270.000,1.500,1.586,9.750E-003
! <Site:Location>, Location Name, Latitude {N+/S- Deg}, Longitude {E+/W- Deg},  Time Zone Number {GMT+/-}, Elevation {m},  Standard Pressure at Elevation {Pa}, Standard RhoAir at Elevation
Site:Location,Buffalo Niagara Intl Ap NY USA TMY3 WMO#=725280,42.93,-78.73,-5.00,215.00,98769,1.1739
! <Site Water Mains Temperature Information>,Calculation Method{},Water Mains Temperature Schedule Name{},Annual Average Outdoor Air Temperature{C},Maximum Difference In Monthly Average Outdoor Air Temperatures{deltaC},Fixed Default Water Mains Temperature{C}
Site Water Mains Temperature Information,Correlation,NA,8.97,26.20,NA
! <Building Information>, Building Name,North Axis {deg},Terrain,  Loads Convergence Tolerance Value,Temperature Convergence Tolerance Value,  Solar Distribution,Maximum Number of Warmup Days,Minimum Number of Warmup Days
 Building Information,Mixed_use 1,0.000,City,4.00000E-002,0.40000,FullExterior,25,1
! <Inside Convection Algorithm>, Algorithm {Simple | TARP | CeilingDiffuser | AdaptiveConvectionAlgorithm}
Inside Convection Algorithm,TARP
! <Outside Convection Algorithm>, Algorithm {SimpleCombined | TARP | MoWitt | DOE-2 | AdaptiveConvectionAlgorithm}
Outside Convection Algorithm,DOE-2
! <Sky Radiance Distribution>, Value {Anisotropic}
Sky Radiance Distribution,Anisotropic
! <Zone Air Solution Algorithm>, Value {ThirdOrderBackwardDifference | AnalyticalSolution | EulerMethod}
 Zone Air Solution Algorithm, ThirdOrderBackwardDifference
! <Zone Air Carbon Dioxide Balance Simulation>, Simulation {Yes/No}, Carbon Dioxide Concentration
 Zone Air Carbon Dioxide Balance Simulation, No,N/A
! <Zone Air Generic Contaminant Balance Simulation>, Simulation {Yes/No}, Generic Contaminant Concentration
 Zone Air Generic Contaminant Balance Simulation, No,N/A
! <Zone Air Mass Flow Balance Simulation>, Enforce Mass Balance, Adjust Zone Mixing, Adjust Zone Infiltration {AddInfiltration | AdjustInfiltration | None}, Infiltration Zones {MixingSourceZonesOnly | AllZones}
 Zone Air Mass Flow Balance Simulation, No,N/A,N/A,N/A
! <HVACSystemRootFindingAlgorithm>, Value {RegulaFalsi | Bisection | BisectionThenRegulaFalsi | RegulaFalsiThenBisection}
 HVACSystemRootFindingAlgorithm, RegulaFalsi
! <Environment:Site Atmospheric Variation>,Wind Speed Profile Exponent {},Wind Speed Profile Boundary Layer Thickness {m},Air Temperature Gradient Coefficient {K/m}
Environment:Site Atmospheric Variation,0.330,460.000,6.500000E-003
! <Surface Geometry>,Starting Corner,Vertex Input Direction,Coordinate System,Daylight Reference Point Coordinate System,Rectangular (Simple) Surface Coordinate System
 Surface Geometry,UpperLeftCorner,Counterclockwise,RelativeCoordinateSystem,RelativeCoordinateSystem,RelativeToZoneOrigin
! <Surface Heat Transfer Algorithm>, Value {CTF - ConductionTransferFunction | EMPD - MoisturePenetrationDepthConductionTransferFunction | CondFD - ConductionFiniteDifference | HAMT - CombinedHeatAndMoistureFiniteElement} - Description,Inside Surface Max Temperature Limit{C}, Surface Convection Coefficient Lower Limit {W/m2-K}, Surface Convection Coefficient Upper Limit {W/m2-K}
Surface Heat Transfer Algorithm, CTF - ConductionTransferFunction,200,0.10,1000.0
! <Shading Summary>, Number of Fixed Detached Shades, Number of Building Detached Shades, Number of Attached Shades
 Shading Summary,0,198,0
! <Zone Summary>, Number of Zones, Number of Zone Surfaces, Number of SubSurfaces
 Zone Summary,32,568,28
! <Zone Information>,Zone Name,North Axis {deg},Origin X-Coordinate {m},Origin Y-Coordinate {m},Origin Z-Coordinate {m},Centroid X-Coordinate {m},Centroid Y-Coordinate {m},Centroid Z-Coordinate {m},Type,Zone Multiplier,Zone List Multiplier,Minimum X {m},Maximum X {m},Minimum Y {m},Maximum Y {m},Minimum Z {m},Maximum Z {m},Ceiling Height {m},Volume {m3},Zone Inside Convection Algorithm {Simple-Detailed-CeilingDiffuser-TrombeWall},Zone Outside Convection Algorithm {Simple-Detailed-Tarp-MoWitt-DOE-2-BLAST}, Floor Area {m2},Exterior Gross Wall Area {m2},Exterior Net Wall Area {m2},Exterior Window Area {m2}, Number of Surfaces, Number of SubSurfaces, Number of Shading SubSurfaces,  Part of Total Building Area
 Zone Information, BUILDING STORY 1 THERMALZONE,0.0,0.00,0.00,0.00,64.13,139.38,1.80,1,1,1,3.56,108.38,3.55,234.21,0.00,3.60,3.60,56226.56,TARP,DOE-2,15618.49,0.00,0.00,0.00,9,0,0,Yes
 Zone Information, BUILDING STORY 1 THERMALZONE 1,0.0,0.00,0.00,0.00,108.94,93.13,1.80,1,1,1,105.93,111.61,17.73,165.12,0.00,3.60,3.60,1879.20,TARP,DOE-2,522.00,530.62,371.43,159.19,6,1,0,Yes
 Zone Information, BUILDING STORY 1 THERMALZONE 2,0.0,0.00,0.00,0.00,82.58,10.37,1.80,1,1,1,53.73,111.61,2.09E-004,20.09,0.00,3.60,3.60,631.16,TARP,DOE-2,175.32,217.92,152.55,65.38,6,1,0,Yes
 Zone Information, BUILDING STORY 1 THERMALZONE 3,0.0,0.00,0.00,0.00,28.22,83.14,1.80,1,1,1,9.11E-011,55.57,2.09E-004,165.55,0.00,3.60,3.60,1749.77,TARP,DOE-2,486.05,626.57,438.60,187.97,6,1,0,Yes
 Zone Information, BUILDING STORY 1 THERMALZONE 4,0.0,0.00,0.00,0.00,25.58,172.30,1.80,1,1,1,9.11E-011,51.15,163.73,180.88,0.00,3.60,3.60,508.56,TARP,DOE-2,141.27,179.99,126.00,54.00,6,1,0,Yes
 Zone Information, BUILDING STORY 1 THERMALZONE 5,0.0,0.00,0.00,0.00,42.89,199.93,1.80,1,1,1,34.63,51.15,179.06,220.81,0.00,3.60,3.60,427.00,TARP,DOE-2,118.61,151.13,105.79,45.34,6,1,0,Yes
 Zone Information, BUILDING STORY 1 THERMALZONE 6,0.0,0.00,0.00,0.00,61.34,227.99,1.80,1,1,1,34.63,87.23,218.99,237.76,0.00,3.60,3.60,532.26,TARP,DOE-2,147.85,198.94,139.26,59.68,6,1,0,Yes
 Zone Information, BUILDING STORY 1 THERMALZONE 7,0.0,0.00,0.00,0.00,97.42,199.44,1.80,1,1,1,85.39,109.88,164.49,237.76,0.00,3.60,3.60,904.49,TARP,DOE-2,251.25,273.93,191.75,82.18,6,1,0,Yes
 Zone Information, BUILDING STORY 2 THERMALZONE,0.0,0.00,0.00,0.00,64.13,139.38,5.40,1,1,1,3.56,108.38,3.55,234.21,3.60,7.20,3.60,56226.56,TARP,DOE-2,15618.49,0.00,0.00,0.00,9,0,0,Yes
 Zone Information, BUILDING STORY 2 THERMALZONE 1,0.0,0.00,0.00,0.00,108.94,93.13,5.40,1,1,1,105.93,111.61,17.73,165.12,3.60,7.20,3.60,1879.20,TARP,DOE-2,522.00,530.62,371.43,159.19,6,1,0,Yes
 Zone Information, BUILDING STORY 2 THERMALZONE 2,0.0,0.00,0.00,0.00,82.58,10.37,5.40,1,1,1,53.73,111.61,2.09E-004,20.09,3.60,7.20,3.60,631.16,TARP,DOE-2,175.32,217.92,152.55,65.38,6,1,0,Yes
 Zone Information, BUILDING STORY 2 THERMALZONE 3,0.0,0.00,0.00,0.00,28.22,83.14,5.40,1,1,1,9.11E-011,55.57,2.09E-004,165.55,3.60,7.20,3.60,1749.77,TARP,DOE-2,486.05,626.57,438.60,187.97,6,1,0,Yes
 Zone Information, BUILDING STORY 2 THERMALZONE 4,0.0,0.00,0.00,0.00,25.58,172.30,5.40,1,1,1,9.11E-011,51.15,163.73,180.88,3.60,7.20,3.60,508.56,TARP,DOE-2,141.27,179.99,126.00,54.00,6,1,0,Yes
 Zone Information, BUILDING STORY 2 THERMALZONE 5,0.0,0.00,0.00,0.00,42.89,199.93,5.40,1,1,1,34.63,51.15,179.06,220.81,3.60,7.20,3.60,427.00,TARP,DOE-2,118.61,151.13,105.79,45.34,6,1,0,Yes
 Zone Information, BUILDING STORY 2 THERMALZONE 6,0.0,0.00,0.00,0.00,61.34,227.99,5.40,1,1,1,34.63,87.23,218.99,237.76,3.60,7.20,3.60,532.26,TARP,DOE-2,147.85,198.94,139.26,59.68,6,1,0,Yes
 Zone Information, BUILDING STORY 2 THERMALZONE 7,0.0,0.00,0.00,0.00,97.42,199.44,5.40,1,1,1,85.39,109.88,164.49,237.76,3.60,7.20,3.60,904.49,TARP,DOE-2,251.25,273.93,191.75,82.18,6,1,0,Yes
 Zone Information, BUILDING STORY 3 THERMALZONE,0.0,0.00,0.00,0.00,64.13,139.38,9.00,1,1,1,3.56,108.38,3.55,234.21,7.20,10.80,3.60,56226.56,TARP,DOE-2,15618.49,0.00,0.00,0.00,9,0,0,Yes
 Zone Information, BUILDING STORY 3 THERMALZONE 1,0.0,0.00,0.00,0.00,108.94,93.13,9.00,1,1,1,105.93,111.61,17.73,165.12,7.20,10.80,3.60,1879.20,TARP,DOE-2,522.00,530.62,371.43,159.19,6,1,0,Yes
 Zone Information, BUILDING STORY 3 THERMALZONE 2,0.0,0.00,0.00,0.00,82.58,10.37,9.00,1,1,1,53.73,111.61,2.09E-004,20.09,7.20,10.80,3.60,631.16,TARP,DOE-2,175.32,217.92,152.55,65.38,6,1,0,Yes
 Zone Information, BUILDING STORY 3 THERMALZONE 3,0.0,0.00,0.00,0.00,28.22,83.14,9.00,1,1,1,9.11E-011,55.57,2.09E-004,165.55,7.20,10.80,3.60,1749.77,TARP,DOE-2,486.05,626.57,438.60,187.97,6,1,0,Yes
 Zone Information, BUILDING STORY 3 THERMALZONE 4,0.0,0.00,0.00,0.00,25.58,172.30,9.00,1,1,1,9.11E-011,51.15,163.73,180.88,7.20,10.80,3.60,508.56,TARP,DOE-2,141.27,179.99,126.00,54.00,6,1,0,Yes
 Zone Information, BUILDING STORY 3 THERMALZONE 5,0.0,0.00,0.00,0.00,42.89,199.93,9.00,1,1,1,34.63,51.15,179.06,220.81,7.20,10.80,3.60,427.00,TARP,DOE-2,118.61,151.13,105.79,45.34,6,1,0,Yes
 Zone Information, BUILDING STORY 3 THERMALZONE 6,0.0,0.00,0.00,0.00,61.34,227.99,9.00,1,1,1,34.63,87.23,218.99,237.76,7.20,10.80,3.60,532.26,TARP,DOE-2,147.85,198.94,139.26,59.68,6,1,0,Yes
 Zone Information, BUILDING STORY 3 THERMALZONE 7,0.0,0.00,0.00,0.00,97.42,199.44,9.00,1,1,1,85.39,109.88,164.49,237.76,7.20,10.80,3.60,904.49,TARP,DOE-2,251.25,273.93,191.75,82.18,6,1,0,Yes
 Zone Information, BUILDING STORY 4 THERMALZONE,0.0,0.00,0.00,0.00,64.13,139.38,12.60,1,1,1,3.56,108.38,3.55,234.21,10.80,14.40,3.60,56226.56,TARP,DOE-2,15618.49,0.00,0.00,0.00,9,0,0,Yes
 Zone Information, BUILDING STORY 4 THERMALZONE 1,0.0,0.00,0.00,0.00,108.94,93.13,12.60,1,1,1,105.93,111.61,17.73,165.12,10.80,14.40,3.60,1879.20,TARP,DOE-2,522.00,530.62,371.43,159.19,6,1,0,Yes
 Zone Information, BUILDING STORY 4 THERMALZONE 2,0.0,0.00,0.00,0.00,82.58,10.37,12.60,1,1,1,53.73,111.61,2.09E-004,20.09,10.80,14.40,3.60,631.16,TARP,DOE-2,175.32,217.92,152.55,65.38,6,1,0,Yes
 Zone Information, BUILDING STORY 4 THERMALZONE 3,0.0,0.00,0.00,0.00,28.22,83.14,12.60,1,1,1,9.11E-011,55.57,2.09E-004,165.55,10.80,14.40,3.60,1749.77,TARP,DOE-2,486.05,626.57,438.60,187.97,6,1,0,Yes
 Zone Information, BUILDING STORY 4 THERMALZONE 4,0.0,0.00,0.00,0.00,25.58,172.30,12.60,1,1,1,9.11E-011,51.15,163.73,180.88,10.80,14.40,3.60,508.56,TARP,DOE-2,141.27,179.99,126.00,54.00,6,1,0,Yes
 Zone Information, BUILDING STORY 4 THERMALZONE 5,0.0,0.00,0.00,0.00,42.89,199.93,12.60,1,1,1,34.63,51.15,179.06,220.81,10.80,14.40,3.60,427.00,TARP,DOE-2,118.61,151.13,105.79,45.34,6,1,0,Yes
 Zone Information, BUILDING STORY 4 THERMALZONE 6,0.0,0.00,0.00,0.00,61.34,227.99,12.60,1,1,1,34.63,87.23,218.99,237.76,10.80,14.40,3.60,532.26,TARP,DOE-2,147.85,198.94,139.26,59.68,6,1,0,Yes
 Zone Information, BUILDING STORY 4 THERMALZONE 7,0.0,0.00,0.00,0.00,97.42,199.44,12.60,1,1,1,85.39,109.88,164.49,237.76,10.80,14.40,3.60,904.49,TARP,DOE-2,251.25,273.93,191.75,82.18,6,1,0,Yes
! <Zone Internal Gains Nominal>,Zone Name, Floor Area {m2},# Occupants,Area per Occupant {m2/person},Occupant per Area {person/m2},Interior Lighting {W/m2},Electric Load {W/m2},Gas Load {W/m2},Other Load {W/m2},Hot Water Eq {W/m2},Steam Equipment {W/m2},Sum Loads per Area {W/m2},Outdoor Controlled Baseboard Heat
 Zone Internal Gains Nominal, BUILDING STORY 1 THERMALZONE,15618.49,796.4,19.612,5.099E-002,8.826,60.357,0.000,0.000,0.000,0.000,69.183,No
 Zone Internal Gains Nominal, BUILDING STORY 1 THERMALZONE 1,522.00,26.6,19.612,5.099E-002,8.826,60.357,0.000,0.000,0.000,0.000,69.183,No
 Zone Internal Gains Nominal, BUILDING STORY 1 THERMALZONE 2,175.32,8.9,19.612,5.099E-002,8.826,60.357,0.000,0.000,0.000,0.000,69.183,No
 Zone Internal Gains Nominal, BUILDING STORY 1 THERMALZONE 3,486.05,24.8,19.612,5.099E-002,8.826,60.357,0.000,0.000,0.000,0.000,69.183,No
 Zone Internal Gains Nominal, BUILDING STORY 1 THERMALZONE 4,141.27,7.2,19.612,5.099E-002,8.826,60.357,0.000,0.000,0.000,0.000,69.183,No
 Zone Internal Gains Nominal, BUILDING STORY 1 THERMALZONE 5,118.61,6.0,19.612,5.099E-002,8.826,60.357,0.000,0.000,0.000,0.000,69.183,No
 Zone Internal Gains Nominal, BUILDING STORY 1 THERMALZONE 6,147.85,7.5,19.612,5.099E-002,8.826,60.357,0.000,0.000,0.000,0.000,69.183,No
 Zone Internal Gains Nominal, BUILDING STORY 1 THERMALZONE 7,251.25,12.8,19.612,5.099E-002,8.826,60.357,0.000,0.000,0.000,0.000,69.183,No
 Zone Internal Gains Nominal, BUILDING STORY 2 THERMALZONE,15618.49,840.6,18.581,5.382E-002,8.826,8.070,0.000,0.000,0.000,0.000,16.896,No
 Zone Internal Gains Nominal, BUILDING STORY 2 THERMALZONE 1,522.00,28.1,18.581,5.382E-002,8.826,8.070,0.000,0.000,0.000,0.000,16.896,No
 Zone Internal Gains Nominal, BUILDING STORY 2 THERMALZONE 2,175.32,9.4,18.581,5.382E-002,8.826,8.070,0.000,0.000,0.000,0.000,16.896,No
 Zone Internal Gains Nominal, BUILDING STORY 2 THERMALZONE 3,486.05,26.2,18.581,5.382E-002,8.826,8.070,0.000,0.000,0.000,0.000,16.896,No
 Zone Internal Gains Nominal, BUILDING STORY 2 THERMALZONE 4,141.27,7.6,18.581,5.382E-002,8.826,8.070,0.000,0.000,0.000,0.000,16.896,No
 Zone Internal Gains Nominal, BUILDING STORY 2 THERMALZONE 5,118.61,6.4,18.581,5.382E-002,8.826,8.070,0.000,0.000,0.000,0.000,16.896,No
 Zone Internal Gains Nominal, BUILDING STORY 2 THERMALZONE 6,147.85,8.0,18.581,5.382E-002,8.826,8.070,0.000,0.000,0.000,0.000,16.896,No
 Zone Internal Gains Nominal, BUILDING STORY 2 THERMALZONE 7,251.25,13.5,18.581,5.382E-002,8.826,8.070,0.000,0.000,0.000,0.000,16.896,No
 Zone Internal Gains Nominal, BUILDING STORY 3 THERMALZONE,15618.49,5806.1,2.690,0.372,11.459,249.909,354.229,0.000,0.000,0.000,615.597,No
 Zone Internal Gains Nominal, BUILDING STORY 3 THERMALZONE 1,522.00,194.0,2.690,0.372,11.459,249.909,354.229,0.000,0.000,0.000,615.597,No
 Zone Internal Gains Nominal, BUILDING STORY 3 THERMALZONE 2,175.32,65.2,2.690,0.372,11.459,249.909,354.229,0.000,0.000,0.000,615.597,No
 Zone Internal Gains Nominal, BUILDING STORY 3 THERMALZONE 3,486.05,180.7,2.690,0.372,11.459,249.909,354.229,0.000,0.000,0.000,615.597,No
 Zone Internal Gains Nominal, BUILDING STORY 3 THERMALZONE 4,141.27,52.5,2.690,0.372,11.459,249.909,354.229,0.000,0.000,0.000,615.597,No
 Zone Internal Gains Nominal, BUILDING STORY 3 THERMALZONE 5,118.61,44.1,2.690,0.372,11.459,249.909,354.229,0.000,0.000,0.000,615.597,No
 Zone Internal Gains Nominal, BUILDING STORY 3 THERMALZONE 6,147.85,55.0,2.690,0.372,11.459,249.909,354.229,0.000,0.000,0.000,615.597,No
 Zone Internal Gains Nominal, BUILDING STORY 3 THERMALZONE 7,251.25,93.4,2.690,0.372,11.459,249.909,354.229,0.000,0.000,0.000,615.597,No
 Zone Internal Gains Nominal, BUILDING STORY 4 THERMALZONE,15618.49,11768.1,1.327,0.753,9.580,64.928,0.000,0.000,0.000,0.000,74.508,No
 Zone Internal Gains Nominal, BUILDING STORY 4 THERMALZONE 1,522.00,393.3,1.327,0.753,9.580,64.928,0.000,0.000,0.000,0.000,74.508,No
 Zone Internal Gains Nominal, BUILDING STORY 4 THERMALZONE 2,175.32,132.1,1.327,0.753,9.580,64.928,0.000,0.000,0.000,0.000,74.508,No
 Zone Internal Gains Nominal, BUILDING STORY 4 THERMALZONE 3,486.05,366.2,1.327,0.753,9.580,64.928,0.000,0.000,0.000,0.000,74.508,No
 Zone Internal Gains Nominal, BUILDING STORY 4 THERMALZONE 4,141.27,106.4,1.327,0.753,9.580,64.928,0.000,0.000,0.000,0.000,74.508,No
 Zone Internal Gains Nominal, BUILDING STORY 4 THERMALZONE 5,118.61,89.4,1.327,0.753,9.580,64.928,0.000,0.000,0.000,0.000,74.508,No
 Zone Internal Gains Nominal, BUILDING STORY 4 THERMALZONE 6,147.85,111.4,1.327,0.753,9.580,64.928,0.000,0.000,0.000,0.000,74.508,No
 Zone Internal Gains Nominal, BUILDING STORY 4 THERMALZONE 7,251.25,189.3,1.327,0.753,9.580,64.928,0.000,0.000,0.000,0.000,74.508,No
! <People Internal Gains Nominal>,Name,Schedule Name,Zone Name,Zone Floor Area {m2},# Zone Occupants,Number of People {},People/Floor Area {person/m2},Floor Area per person {m2/person},Fraction Radiant,Fraction Convected,Sensible Fraction Calculation,Activity level,ASHRAE 55 Warnings,Carbon Dioxide Generation Rate,Nominal Minimum Number of People,Nominal Maximum Number of People
 People Internal Gains Nominal, BUILDING STORY 1 THERMALZONE OFFICE WHOLEBUILDING - LG OFFICE PEOPLE 1,OFFICELARGE BLDG_OCC_SCH,BUILDING STORY 1 THERMALZONE,15618.49,796.4,796.4,5.099E-002,19.612,0.300,0.700,AutoCalculate,OFFICELARGE ACTIVITY_SCH,No,3.8200E-008,0,796
 People Internal Gains Nominal, BUILDING STORY 1 THERMALZONE 1 OFFICE WHOLEBUILDING - LG OFFICE PEOPLE 1,OFFICELARGE BLDG_OCC_SCH,BUILDING STORY 1 THERMALZONE 1,522.00,26.6,26.6,5.099E-002,19.612,0.300,0.700,AutoCalculate,OFFICELARGE ACTIVITY_SCH,No,3.8200E-008,0,27
 People Internal Gains Nominal, BUILDING STORY 1 THERMALZONE 2 OFFICE WHOLEBUILDING - LG OFFICE PEOPLE 1,OFFICELARGE BLDG_OCC_SCH,BUILDING STORY 1 THERMALZONE 2,175.32,8.9,8.9,5.099E-002,19.612,0.300,0.700,AutoCalculate,OFFICELARGE ACTIVITY_SCH,No,3.8200E-008,0,9
 People Internal Gains Nominal, BUILDING STORY 1 THERMALZONE 3 OFFICE WHOLEBUILDING - LG OFFICE PEOPLE 1,OFFICELARGE BLDG_OCC_SCH,BUILDING STORY 1 THERMALZONE 3,486.05,24.8,24.8,5.099E-002,19.612,0.300,0.700,AutoCalculate,OFFICELARGE ACTIVITY_SCH,No,3.8200E-008,0,25
 People Internal Gains Nominal, BUILDING STORY 1 THERMALZONE 4 OFFICE WHOLEBUILDING - LG OFFICE PEOPLE 1,OFFICELARGE BLDG_OCC_SCH,BUILDING STORY 1 THERMALZONE 4,141.27,7.2,7.2,5.099E-002,19.612,0.300,0.700,AutoCalculate,OFFICELARGE ACTIVITY_SCH,No,3.8200E-008,0,7
 People Internal Gains Nominal, BUILDING STORY 1 THERMALZONE 5 OFFICE WHOLEBUILDING - LG OFFICE PEOPLE 1,OFFICELARGE BLDG_OCC_SCH,BUILDING STORY 1 THERMALZONE 5,118.61,6.0,6.0,5.099E-002,19.612,0.300,0.700,AutoCalculate,OFFICELARGE ACTIVITY_SCH,No,3.8200E-008,0,6
 People Internal Gains Nominal, BUILDING STORY 1 THERMALZONE 6 OFFICE WHOLEBUILDING - LG OFFICE PEOPLE 1,OFFICELARGE BLDG_OCC_SCH,BUILDING STORY 1 THERMALZONE 6,147.85,7.5,7.5,5.099E-002,19.612,0.300,0.700,AutoCalculate,OFFICELARGE ACTIVITY_SCH,No,3.8200E-008,0,8
 People Internal Gains Nominal, BUILDING STORY 1 THERMALZONE 7 OFFICE WHOLEBUILDING - LG OFFICE PEOPLE 1,OFFICELARGE BLDG_OCC_SCH,BUILDING STORY 1 THERMALZONE 7,251.25,12.8,12.8,5.099E-002,19.612,0.300,0.700,AutoCalculate,OFFICELARGE ACTIVITY_SCH,No,3.8200E-008,0,13
 People Internal Gains Nominal, BUILDING STORY 2 THERMALZONE OFFICE WHOLEBUILDING - LG OFFICE PEOPLE 2,OFFICELARGE BLDG_OCC_SCH,BUILDING STORY 2 THERMALZONE,15618.49,840.6,840.6,5.382E-002,18.581,0.300,0.700,AutoCalculate,OFFICELARGE ACTIVITY_SCH,No,3.8200E-008,0,841
 People Internal Gains Nominal, BUILDING STORY 2 THERMALZONE 1 OFFICE WHOLEBUILDING - LG OFFICE PEOPLE 2,OFFICELARGE BLDG_OCC_SCH,BUILDING STORY 2 THERMALZONE 1,522.00,28.1,28.1,5.382E-002,18.581,0.300,0.700,AutoCalculate,OFFICELARGE ACTIVITY_SCH,No,3.8200E-008,0,28
 People Internal Gains Nominal, BUILDING STORY 2 THERMALZONE 2 OFFICE WHOLEBUILDING - LG OFFICE PEOPLE 2,OFFICELARGE BLDG_OCC_SCH,BUILDING STORY 2 THERMALZONE 2,175.32,9.4,9.4,5.382E-002,18.581,0.300,0.700,AutoCalculate,OFFICELARGE ACTIVITY_SCH,No,3.8200E-008,0,9
 People Internal Gains Nominal, BUILDING STORY 2 THERMALZONE 3 OFFICE WHOLEBUILDING - LG OFFICE PEOPLE 2,OFFICELARGE BLDG_OCC_SCH,BUILDING STORY 2 THERMALZONE 3,486.05,26.2,26.2,5.382E-002,18.581,0.300,0.700,AutoCalculate,OFFICELARGE ACTIVITY_SCH,No,3.8200E-008,0,26
 People Internal Gains Nominal, BUILDING STORY 2 THERMALZONE 4 OFFICE WHOLEBUILDING - LG OFFICE PEOPLE 2,OFFICELARGE BLDG_OCC_SCH,BUILDING STORY 2 THERMALZONE 4,141.27,7.6,7.6,5.382E-002,18.581,0.300,0.700,AutoCalculate,OFFICELARGE ACTIVITY_SCH,No,3.8200E-008,0,8
 People Internal Gains Nominal, BUILDING STORY 2 THERMALZONE 5 OFFICE WHOLEBUILDING - LG OFFICE PEOPLE 2,OFFICELARGE BLDG_OCC_SCH,BUILDING STORY 2 THERMALZONE 5,118.61,6.4,6.4,5.382E-002,18.581,0.300,0.700,AutoCalculate,OFFICELARGE ACTIVITY_SCH,No,3.8200E-008,0,6
 People Internal Gains Nominal, BUILDING STORY 2 THERMALZONE 6 OFFICE WHOLEBUILDING - LG OFFICE PEOPLE 2,OFFICELARGE BLDG_OCC_SCH,BUILDING STORY 2 THERMALZONE 6,147.85,8.0,8.0,5.382E-002,18.581,0.300,0.700,AutoCalculate,OFFICELARGE ACTIVITY_SCH,No,3.8200E-008,0,8
 People Internal Gains Nominal, BUILDING STORY 2 THERMALZONE 7 OFFICE WHOLEBUILDING - LG OFFICE PEOPLE 2,OFFICELARGE BLDG_OCC_SCH,BUILDING STORY 2 THERMALZONE 7,251.25,13.5,13.5,5.382E-002,18.581,0.300,0.700,AutoCalculate,OFFICELARGE ACTIVITY_SCH,No,3.8200E-008,0,14
 People Internal Gains Nominal, BUILDING STORY 3 THERMALZONE FULLSERVICERESTAURANT DINING PEOPLE 1,RESTAURANTSITDOWN BLDG_OCC_SCH,BUILDING STORY 3 THERMALZONE,15618.49,5806.1,5347.4,0.342,2.921,0.300,0.700,AutoCalculate,RESTAURANTSITDOWN ACTIVITY_SCH,No,3.8200E-008,0,5347
 People Internal Gains Nominal, BUILDING STORY 3 THERMALZONE 1 FULLSERVICERESTAURANT DINING PEOPLE 1,RESTAURANTSITDOWN BLDG_OCC_SCH,BUILDING STORY 3 THERMALZONE 1,522.00,194.0,178.7,0.342,2.921,0.300,0.700,AutoCalculate,RESTAURANTSITDOWN ACTIVITY_SCH,No,3.8200E-008,0,179
 People Internal Gains Nominal, BUILDING STORY 3 THERMALZONE 2 FULLSERVICERESTAURANT DINING PEOPLE 1,RESTAURANTSITDOWN BLDG_OCC_SCH,BUILDING STORY 3 THERMALZONE 2,175.32,65.2,60.0,0.342,2.921,0.300,0.700,AutoCalculate,RESTAURANTSITDOWN ACTIVITY_SCH,No,3.8200E-008,0,60
 People Internal Gains Nominal, BUILDING STORY 3 THERMALZONE 3 FULLSERVICERESTAURANT DINING PEOPLE 1,RESTAURANTSITDOWN BLDG_OCC_SCH,BUILDING STORY 3 THERMALZONE 3,486.05,180.7,166.4,0.342,2.921,0.300,0.700,AutoCalculate,RESTAURANTSITDOWN ACTIVITY_SCH,No,3.8200E-008,0,166
 People Internal Gains Nominal, BUILDING STORY 3 THERMALZONE 4 FULLSERVICERESTAURANT DINING PEOPLE 1,RESTAURANTSITDOWN BLDG_OCC_SCH,BUILDING STORY 3 THERMALZONE 4,141.27,52.5,48.4,0.342,2.921,0.300,0.700,AutoCalculate,RESTAURANTSITDOWN ACTIVITY_SCH,No,3.8200E-008,0,48
 People Internal Gains Nominal, BUILDING STORY 3 THERMALZONE 5 FULLSERVICERESTAURANT DINING PEOPLE 1,RESTAURANTSITDOWN BLDG_OCC_SCH,BUILDING STORY 3 THERMALZONE 5,118.61,44.1,40.6,0.342,2.921,0.300,0.700,AutoCalculate,RESTAURANTSITDOWN ACTIVITY_SCH,No,3.8200E-008,0,41
 People Internal Gains Nominal, BUILDING STORY 3 THERMALZONE 6 FULLSERVICERESTAURANT DINING PEOPLE 1,RESTAURANTSITDOWN BLDG_OCC_SCH,BUILDING STORY 3 THERMALZONE 6,147.85,55.0,50.6,0.342,2.921,0.300,0.700,AutoCalculate,RESTAURANTSITDOWN ACTIVITY_SCH,No,3.8200E-008,0,51
 People Internal Gains Nominal, BUILDING STORY 3 THERMALZONE 7 FULLSERVICERESTAURANT DINING PEOPLE 1,RESTAURANTSITDOWN BLDG_OCC_SCH,BUILDING STORY 3 THERMALZONE 7,251.25,93.4,86.0,0.342,2.921,0.300,0.700,AutoCalculate,RESTAURANTSITDOWN ACTIVITY_SCH,No,3.8200E-008,0,86
 People Internal Gains Nominal, BUILDING STORY 3 THERMALZONE FULLSERVICERESTAURANT KITCHEN PEOPLE 1,RESTAURANTSITDOWN BLDG_OCC_SCH,BUILDING STORY 3 THERMALZONE,15618.49,5806.1,458.6,2.936E-002,34.055,0.300,0.700,AutoCalculate,RESTAURANTSITDOWN ACTIVITY_SCH,No,3.8200E-008,0,459
 People Internal Gains Nominal, BUILDING STORY 3 THERMALZONE 1 FULLSERVICERESTAURANT KITCHEN PEOPLE 1,RESTAURANTSITDOWN BLDG_OCC_SCH,BUILDING STORY 3 THERMALZONE 1,522.00,194.0,15.3,2.936E-002,34.055,0.300,0.700,AutoCalculate,RESTAURANTSITDOWN ACTIVITY_SCH,No,3.8200E-008,0,15
 People Internal Gains Nominal, BUILDING STORY 3 THERMALZONE 2 FULLSERVICERESTAURANT KITCHEN PEOPLE 1,RESTAURANTSITDOWN BLDG_OCC_SCH,BUILDING STORY 3 THERMALZONE 2,175.32,65.2,5.1,2.936E-002,34.055,0.300,0.700,AutoCalculate,RESTAURANTSITDOWN ACTIVITY_SCH,No,3.8200E-008,0,5
 People Internal Gains Nominal, BUILDING STORY 3 THERMALZONE 3 FULLSERVICERESTAURANT KITCHEN PEOPLE 1,RESTAURANTSITDOWN BLDG_OCC_SCH,BUILDING STORY 3 THERMALZONE 3,486.05,180.7,14.3,2.936E-002,34.055,0.300,0.700,AutoCalculate,RESTAURANTSITDOWN ACTIVITY_SCH,No,3.8200E-008,0,14
 People Internal Gains Nominal, BUILDING STORY 3 THERMALZONE 4 FULLSERVICERESTAURANT KITCHEN PEOPLE 1,RESTAURANTSITDOWN BLDG_OCC_SCH,BUILDING STORY 3 THERMALZONE 4,141.27,52.5,4.1,2.936E-002,34.055,0.300,0.700,AutoCalculate,RESTAURANTSITDOWN ACTIVITY_SCH,No,3.8200E-008,0,4
 People Internal Gains Nominal, BUILDING STORY 3 THERMALZONE 5 FULLSERVICERESTAURANT KITCHEN PEOPLE 1,RESTAURANTSITDOWN BLDG_OCC_SCH,BUILDING STORY 3 THERMALZONE 5,118.61,44.1,3.5,2.936E-002,34.055,0.300,0.700,AutoCalculate,RESTAURANTSITDOWN ACTIVITY_SCH,No,3.8200E-008,0,3
 People Internal Gains Nominal, BUILDING STORY 3 THERMALZONE 6 FULLSERVICERESTAURANT KITCHEN PEOPLE 1,RESTAURANTSITDOWN BLDG_OCC_SCH,BUILDING STORY 3 THERMALZONE 6,147.85,55.0,4.3,2.936E-002,34.055,0.300,0.700,AutoCalculate,RESTAURANTSITDOWN ACTIVITY_SCH,No,3.8200E-008,0,4
 People Internal Gains Nominal, BUILDING STORY 3 THERMALZONE 7 FULLSERVICERESTAURANT KITCHEN PEOPLE 1,RESTAURANTSITDOWN BLDG_OCC_SCH,BUILDING STORY 3 THERMALZONE 7,251.25,93.4,7.4,2.936E-002,34.055,0.300,0.700,AutoCalculate,RESTAURANTSITDOWN ACTIVITY_SCH,No,3.8200E-008,0,7
 People Internal Gains Nominal, BUILDING STORY 4 THERMALZONE FULLSERVICERESTAURANT DINING PEOPLE 2,RESTAURANTSITDOWN BLDG_OCC_SCH,BUILDING STORY 4 THERMALZONE,15618.49,11768.1,11768.1,0.753,1.327,0.300,0.700,AutoCalculate,RESTAURANTSITDOWN ACTIVITY_SCH,No,3.8200E-008,0,11768
 People Internal Gains Nominal, BUILDING STORY 4 THERMALZONE 1 FULLSERVICERESTAURANT DINING PEOPLE 2,RESTAURANTSITDOWN BLDG_OCC_SCH,BUILDING STORY 4 THERMALZONE 1,522.00,393.3,393.3,0.753,1.327,0.300,0.700,AutoCalculate,RESTAURANTSITDOWN ACTIVITY_SCH,No,3.8200E-008,0,393
 People Internal Gains Nominal, BUILDING STORY 4 THERMALZONE 2 FULLSERVICERESTAURANT DINING PEOPLE 2,RESTAURANTSITDOWN BLDG_OCC_SCH,BUILDING STORY 4 THERMALZONE 2,175.32,132.1,132.1,0.753,1.327,0.300,0.700,AutoCalculate,RESTAURANTSITDOWN ACTIVITY_SCH,No,3.8200E-008,0,132
 People Internal Gains Nominal, BUILDING STORY 4 THERMALZONE 3 FULLSERVICERESTAURANT DINING PEOPLE 2,RESTAURANTSITDOWN BLDG_OCC_SCH,BUILDING STORY 4 THERMALZONE 3,486.05,366.2,366.2,0.753,1.327,0.300,0.700,AutoCalculate,RESTAURANTSITDOWN ACTIVITY_SCH,No,3.8200E-008,0,366
 People Internal Gains Nominal, BUILDING STORY 4 THERMALZONE 4 FULLSERVICERESTAURANT DINING PEOPLE 2,RESTAURANTSITDOWN BLDG_OCC_SCH,BUILDING STORY 4 THERMALZONE 4,141.27,106.4,106.4,0.753,1.327,0.300,0.700,AutoCalculate,RESTAURANTSITDOWN ACTIVITY_SCH,No,3.8200E-008,0,106
 People Internal Gains Nominal, BUILDING STORY 4 THERMALZONE 5 FULLSERVICERESTAURANT DINING PEOPLE 2,RESTAURANTSITDOWN BLDG_OCC_SCH,BUILDING STORY 4 THERMALZONE 5,118.61,89.4,89.4,0.753,1.327,0.300,0.700,AutoCalculate,RESTAURANTSITDOWN ACTIVITY_SCH,No,3.8200E-008,0,89
 People Internal Gains Nominal, BUILDING STORY 4 THERMALZONE 6 FULLSERVICERESTAURANT DINING PEOPLE 2,RESTAURANTSITDOWN BLDG_OCC_SCH,BUILDING STORY 4 THERMALZONE 6,147.85,111.4,111.4,0.753,1.327,0.300,0.700,AutoCalculate,RESTAURANTSITDOWN ACTIVITY_SCH,No,3.8200E-008,0,111
 People Internal Gains Nominal, BUILDING STORY 4 THERMALZONE 7 FULLSERVICERESTAURANT DINING PEOPLE 2,RESTAURANTSITDOWN BLDG_OCC_SCH,BUILDING STORY 4 THERMALZONE 7,251.25,189.3,189.3,0.753,1.327,0.300,0.700,AutoCalculate,RESTAURANTSITDOWN ACTIVITY_SCH,No,3.8200E-008,0,189
! <Lights Internal Gains Nominal>,Name,Schedule Name,Zone Name,Zone Floor Area {m2},# Zone Occupants,Lighting Level {W},Lights/Floor Area {W/m2},Lights per person {W/person},Fraction Return Air,Fraction Radiant,Fraction Short Wave,Fraction Convected,Fraction Replaceable,End-Use Category,Nominal Minimum Lighting Level {W},Nominal Maximum Lighting Level {W}
 Lights Internal Gains Nominal, BUILDING STORY 1 THERMALZONE OFFICE OFFICELARGE DATA CENTER LIGHTS 1,OFFICELARGE BLDG_LIGHT_SCH_2013,BUILDING STORY 1 THERMALZONE,15618.49,796.4,2591.677,0.166,3.254,0.000,0.700,0.200,0.100,1.000,General,0.000,2591.677
 Lights Internal Gains Nominal, BUILDING STORY 1 THERMALZONE 1 OFFICE OFFICELARGE DATA CENTER LIGHTS 1,OFFICELARGE BLDG_LIGHT_SCH_2013,BUILDING STORY 1 THERMALZONE 1,522.00,26.6,86.619,0.166,3.254,0.000,0.700,0.200,0.100,1.000,General,0.000,86.619
 Lights Internal Gains Nominal, BUILDING STORY 1 THERMALZONE 2 OFFICE OFFICELARGE DATA CENTER LIGHTS 1,OFFICELARGE BLDG_LIGHT_SCH_2013,BUILDING STORY 1 THERMALZONE 2,175.32,8.9,29.093,0.166,3.254,0.000,0.700,0.200,0.100,1.000,General,0.000,29.093
 Lights Internal Gains Nominal, BUILDING STORY 1 THERMALZONE 3 OFFICE OFFICELARGE DATA CENTER LIGHTS 1,OFFICELARGE BLDG_LIGHT_SCH_2013,BUILDING STORY 1 THERMALZONE 3,486.05,24.8,80.653,0.166,3.254,0.000,0.700,0.200,0.100,1.000,General,0.000,80.653
 Lights Internal Gains Nominal, BUILDING STORY 1 THERMALZONE 4 OFFICE OFFICELARGE DATA CENTER LIGHTS 1,OFFICELARGE BLDG_LIGHT_SCH_2013,BUILDING STORY 1 THERMALZONE 4,141.27,7.2,23.441,0.166,3.254,0.000,0.700,0.200,0.100,1.000,General,0.000,23.441
 Lights Internal Gains Nominal, BUILDING STORY 1 THERMALZONE 5 OFFICE OFFICELARGE DATA CENTER LIGHTS 1,OFFICELARGE BLDG_LIGHT_SCH_2013,BUILDING STORY 1 THERMALZONE 5,118.61,6.0,19.682,0.166,3.254,0.000,0.700,0.200,0.100,1.000,General,0.000,19.682
 Lights Internal Gains Nominal, BUILDING STORY 1 THERMALZONE 6 OFFICE OFFICELARGE DATA CENTER LIGHTS 1,OFFICELARGE BLDG_LIGHT_SCH_2013,BUILDING STORY 1 THERMALZONE 6,147.85,7.5,24.534,0.166,3.254,0.000,0.700,0.200,0.100,1.000,General,0.000,24.534
 Lights Internal Gains Nominal, BUILDING STORY 1 THERMALZONE 7 OFFICE OFFICELARGE DATA CENTER LIGHTS 1,OFFICELARGE BLDG_LIGHT_SCH_2013,BUILDING STORY 1 THERMALZONE 7,251.25,12.8,41.691,0.166,3.254,0.000,0.700,0.200,0.100,1.000,General,0.000,41.691
 Lights Internal Gains Nominal, BUILDING STORY 1 THERMALZONE OFFICE OFFICELARGE MAIN DATA CENTER LIGHTS 1,OFFICELARGE BLDG_LIGHT_SCH_2013,BUILDING STORY 1 THERMALZONE,15618.49,796.4,4659.504,0.298,5.851,0.000,0.700,0.200,0.100,1.000,General,0.000,4659.504
 Lights Internal Gains Nominal, BUILDING STORY 1 THERMALZONE 1 OFFICE OFFICELARGE MAIN DATA CENTER LIGHTS 1,OFFICELARGE BLDG_LIGHT_SCH_2013,BUILDING STORY 1 THERMALZONE 1,522.00,26.6,155.730,0.298,5.851,0.000,0.700,0.200,0.100,1.000,General,0.000,155.730
 Lights Internal Gains Nominal, BUILDING STORY 1 THERMALZONE 2 OFFICE OFFICELARGE MAIN DATA CENTER LIGHTS 1,OFFICELARGE BLDG_LIGHT_SCH_2013,BUILDING STORY 1 THERMALZONE 2,175.32,8.9,52.305,0.298,5.851,0.000,0.700,0.200,0.100,1.000,General,0.000,52.305
 Lights Internal Gains Nominal, BUILDING STORY 1 THERMALZONE 3 OFFICE OFFICELARGE MAIN DATA CENTER LIGHTS 1,OFFICELARGE BLDG_LIGHT_SCH_2013,BUILDING STORY 1 THERMALZONE 3,486.05,24.8,145.003,0.298,5.851,0.000,0.700,0.200,0.100,1.000,General,0.000,145.003
 Lights Internal Gains Nominal, BUILDING STORY 1 THERMALZONE 4 OFFICE OFFICELARGE MAIN DATA CENTER LIGHTS 1,OFFICELARGE BLDG_LIGHT_SCH_2013,BUILDING STORY 1 THERMALZONE 4,141.27,7.2,42.144,0.298,5.851,0.000,0.700,0.200,0.100,1.000,General,0.000,42.144
 Lights Internal Gains Nominal, BUILDING STORY 1 THERMALZONE 5 OFFICE OFFICELARGE MAIN DATA CENTER LIGHTS 1,OFFICELARGE BLDG_LIGHT_SCH_2013,BUILDING STORY 1 THERMALZONE 5,118.61,6.0,35.386,0.298,5.851,0.000,0.700,0.200,0.100,1.000,General,0.000,35.386
 Lights Internal Gains Nominal, BUILDING STORY 1 THERMALZONE 6 OFFICE OFFICELARGE MAIN DATA CENTER LIGHTS 1,OFFICELARGE BLDG_LIGHT_SCH_2013,BUILDING STORY 1 THERMALZONE 6,147.85,7.5,44.109,0.298,5.851,0.000,0.700,0.200,0.100,1.000,General,0.000,44.109
 Lights Internal Gains Nominal, BUILDING STORY 1 THERMALZONE 7 OFFICE OFFICELARGE MAIN DATA CENTER LIGHTS 1,OFFICELARGE BLDG_LIGHT_SCH_2013,BUILDING STORY 1 THERMALZONE 7,251.25,12.8,74.955,0.298,5.851,0.000,0.700,0.200,0.100,1.000,General,0.000,74.955
 Lights Internal Gains Nominal, BUILDING STORY 1 THERMALZONE OFFICE WHOLEBUILDING - LG OFFICE LIGHTS 1,OFFICELARGE BLDG_LIGHT_SCH_2013,BUILDING STORY 1 THERMALZONE,15618.49,796.4,130603.961,8.362,164.000,0.000,0.700,0.200,0.100,1.000,General,0.000,130603.961
 Lights Internal Gains Nominal, BUILDING STORY 1 THERMALZONE 1 OFFICE WHOLEBUILDING - LG OFFICE LIGHTS 1,OFFICELARGE BLDG_LIGHT_SCH_2013,BUILDING STORY 1 THERMALZONE 1,522.00,26.6,4365.035,8.362,164.000,0.000,0.700,0.200,0.100,1.000,General,0.000,4365.035
 Lights Internal Gains Nominal, BUILDING STORY 1 THERMALZONE 2 OFFICE WHOLEBUILDING - LG OFFICE LIGHTS 1,OFFICELARGE BLDG_LIGHT_SCH_2013,BUILDING STORY 1 THERMALZONE 2,175.32,8.9,1466.078,8.362,164.000,0.000,0.700,0.200,0.100,1.000,General,0.000,1466.078
 Lights Internal Gains Nominal, BUILDING STORY 1 THERMALZONE 3 OFFICE WHOLEBUILDING - LG OFFICE LIGHTS 1,OFFICELARGE BLDG_LIGHT_SCH_2013,BUILDING STORY 1 THERMALZONE 3,486.05,24.8,4064.387,8.362,164.000,0.000,0.700,0.200,0.100,1.000,General,0.000,4064.387
 Lights Internal Gains Nominal, BUILDING STORY 1 THERMALZONE 4 OFFICE WHOLEBUILDING - LG OFFICE LIGHTS 1,OFFICELARGE BLDG_LIGHT_SCH_2013,BUILDING STORY 1 THERMALZONE 4,141.27,7.2,1181.291,8.362,164.000,0.000,0.700,0.200,0.100,1.000,General,0.000,1181.291
 Lights Internal Gains Nominal, BUILDING STORY 1 THERMALZONE 5 OFFICE WHOLEBUILDING - LG OFFICE LIGHTS 1,OFFICELARGE BLDG_LIGHT_SCH_2013,BUILDING STORY 1 THERMALZONE 5,118.61,6.0,991.854,8.362,164.000,0.000,0.700,0.200,0.100,1.000,General,0.000,991.854
 Lights Internal Gains Nominal, BUILDING STORY 1 THERMALZONE 6 OFFICE WHOLEBUILDING - LG OFFICE LIGHTS 1,OFFICELARGE BLDG_LIGHT_SCH_2013,BUILDING STORY 1 THERMALZONE 6,147.85,7.5,1236.346,8.362,164.000,0.000,0.700,0.200,0.100,1.000,General,0.000,1236.346
 Lights Internal Gains Nominal, BUILDING STORY 1 THERMALZONE 7 OFFICE WHOLEBUILDING - LG OFFICE LIGHTS 1,OFFICELARGE BLDG_LIGHT_SCH_2013,BUILDING STORY 1 THERMALZONE 7,251.25,12.8,2100.959,8.362,164.000,0.000,0.700,0.200,0.100,1.000,General,0.000,2100.959
 Lights Internal Gains Nominal, BUILDING STORY 2 THERMALZONE OFFICE WHOLEBUILDING - LG OFFICE LIGHTS 2,OFFICELARGE BLDG_LIGHT_SCH_2013,BUILDING STORY 2 THERMALZONE,15618.49,840.6,137855.141,8.826,164.000,0.000,0.700,0.200,0.100,1.000,General,0.000,137855.141
 Lights Internal Gains Nominal, BUILDING STORY 2 THERMALZONE 1 OFFICE WHOLEBUILDING - LG OFFICE LIGHTS 2,OFFICELARGE BLDG_LIGHT_SCH_2013,BUILDING STORY 2 THERMALZONE 1,522.00,28.1,4607.383,8.826,164.000,0.000,0.700,0.200,0.100,1.000,General,0.000,4607.383
 Lights Internal Gains Nominal, BUILDING STORY 2 THERMALZONE 2 OFFICE WHOLEBUILDING - LG OFFICE LIGHTS 2,OFFICELARGE BLDG_LIGHT_SCH_2013,BUILDING STORY 2 THERMALZONE 2,175.32,9.4,1547.476,8.826,164.000,0.000,0.700,0.200,0.100,1.000,General,0.000,1547.476
 Lights Internal Gains Nominal, BUILDING STORY 2 THERMALZONE 3 OFFICE WHOLEBUILDING - LG OFFICE LIGHTS 2,OFFICELARGE BLDG_LIGHT_SCH_2013,BUILDING STORY 2 THERMALZONE 3,486.05,26.2,4290.043,8.826,164.000,0.000,0.700,0.200,0.100,1.000,General,0.000,4290.043
 Lights Internal Gains Nominal, BUILDING STORY 2 THERMALZONE 4 OFFICE WHOLEBUILDING - LG OFFICE LIGHTS 2,OFFICELARGE BLDG_LIGHT_SCH_2013,BUILDING STORY 2 THERMALZONE 4,141.27,7.6,1246.877,8.826,164.000,0.000,0.700,0.200,0.100,1.000,General,0.000,1246.877
 Lights Internal Gains Nominal, BUILDING STORY 2 THERMALZONE 5 OFFICE WHOLEBUILDING - LG OFFICE LIGHTS 2,OFFICELARGE BLDG_LIGHT_SCH_2013,BUILDING STORY 2 THERMALZONE 5,118.61,6.4,1046.922,8.826,164.000,0.000,0.700,0.200,0.100,1.000,General,0.000,1046.922
 Lights Internal Gains Nominal, BUILDING STORY 2 THERMALZONE 6 OFFICE WHOLEBUILDING - LG OFFICE LIGHTS 2,OFFICELARGE BLDG_LIGHT_SCH_2013,BUILDING STORY 2 THERMALZONE 6,147.85,8.0,1304.989,8.826,164.000,0.000,0.700,0.200,0.100,1.000,General,0.000,1304.989
 Lights Internal Gains Nominal, BUILDING STORY 2 THERMALZONE 7 OFFICE WHOLEBUILDING - LG OFFICE LIGHTS 2,OFFICELARGE BLDG_LIGHT_SCH_2013,BUILDING STORY 2 THERMALZONE 7,251.25,13.5,2217.605,8.826,164.000,0.000,0.700,0.200,0.100,1.000,General,0.000,2217.605
 Lights Internal Gains Nominal, BUILDING STORY 3 THERMALZONE FULLSERVICERESTAURANT DINING LIGHTS 1,RESTAURANTSITDOWN BLDG_LIGHT_DINING_SCH_2013,BUILDING STORY 3 THERMALZONE,15618.49,5806.1,67988.811,4.353,11.710,0.000,0.700,0.200,0.100,1.000,General,0.000,67988.811
 Lights Internal Gains Nominal, BUILDING STORY 3 THERMALZONE 1 FULLSERVICERESTAURANT DINING LIGHTS 1,RESTAURANTSITDOWN BLDG_LIGHT_DINING_SCH_2013,BUILDING STORY 3 THERMALZONE 1,522.00,194.0,2272.316,4.353,11.710,0.000,0.700,0.200,0.100,1.000,General,0.000,2272.316
 Lights Internal Gains Nominal, BUILDING STORY 3 THERMALZONE 2 FULLSERVICERESTAURANT DINING LIGHTS 1,RESTAURANTSITDOWN BLDG_LIGHT_DINING_SCH_2013,BUILDING STORY 3 THERMALZONE 2,175.32,65.2,763.200,4.353,11.710,0.000,0.700,0.200,0.100,1.000,General,0.000,763.200
 Lights Internal Gains Nominal, BUILDING STORY 3 THERMALZONE 3 FULLSERVICERESTAURANT DINING LIGHTS 1,RESTAURANTSITDOWN BLDG_LIGHT_DINING_SCH_2013,BUILDING STORY 3 THERMALZONE 3,486.05,180.7,2115.807,4.353,11.710,0.000,0.700,0.200,0.100,1.000,General,0.000,2115.807
 Lights Internal Gains Nominal, BUILDING STORY 3 THERMALZONE 4 FULLSERVICERESTAURANT DINING LIGHTS 1,RESTAURANTSITDOWN BLDG_LIGHT_DINING_SCH_2013,BUILDING STORY 3 THERMALZONE 4,141.27,52.5,614.948,4.353,11.710,0.000,0.700,0.200,0.100,1.000,General,0.000,614.948
 Lights Internal Gains Nominal, BUILDING STORY 3 THERMALZONE 5 FULLSERVICERESTAURANT DINING LIGHTS 1,RESTAURANTSITDOWN BLDG_LIGHT_DINING_SCH_2013,BUILDING STORY 3 THERMALZONE 5,118.61,44.1,516.332,4.353,11.710,0.000,0.700,0.200,0.100,1.000,General,0.000,516.332
 Lights Internal Gains Nominal, BUILDING STORY 3 THERMALZONE 6 FULLSERVICERESTAURANT DINING LIGHTS 1,RESTAURANTSITDOWN BLDG_LIGHT_DINING_SCH_2013,BUILDING STORY 3 THERMALZONE 6,147.85,55.0,643.608,4.353,11.710,0.000,0.700,0.200,0.100,1.000,General,0.000,643.608
 Lights Internal Gains Nominal, BUILDING STORY 3 THERMALZONE 7 FULLSERVICERESTAURANT DINING LIGHTS 1,RESTAURANTSITDOWN BLDG_LIGHT_DINING_SCH_2013,BUILDING STORY 3 THERMALZONE 7,251.25,93.4,1093.701,4.353,11.710,0.000,0.700,0.200,0.100,1.000,General,0.000,1093.701
 Lights Internal Gains Nominal, BUILDING STORY 3 THERMALZONE FULLSERVICERESTAURANT KITCHEN LIGHTS 1,RESTAURANTSITDOWN BLDG_LIGHT_KITCHEN_SCH_2010_2013,BUILDING STORY 3 THERMALZONE,15618.49,5806.1,110986.165,7.106,19.116,0.000,0.700,0.200,0.100,1.000,General,0.000,110986.165
 Lights Internal Gains Nominal, BUILDING STORY 3 THERMALZONE 1 FULLSERVICERESTAURANT KITCHEN LIGHTS 1,RESTAURANTSITDOWN BLDG_LIGHT_KITCHEN_SCH_2010_2013,BUILDING STORY 3 THERMALZONE 1,522.00,194.0,3709.371,7.106,19.116,0.000,0.700,0.200,0.100,1.000,General,0.000,3709.371
 Lights Internal Gains Nominal, BUILDING STORY 3 THERMALZONE 2 FULLSERVICERESTAURANT KITCHEN LIGHTS 1,RESTAURANTSITDOWN BLDG_LIGHT_KITCHEN_SCH_2010_2013,BUILDING STORY 3 THERMALZONE 2,175.32,65.2,1245.861,7.106,19.116,0.000,0.700,0.200,0.100,1.000,General,0.000,1245.861
 Lights Internal Gains Nominal, BUILDING STORY 3 THERMALZONE 3 FULLSERVICERESTAURANT KITCHEN LIGHTS 1,RESTAURANTSITDOWN BLDG_LIGHT_KITCHEN_SCH_2010_2013,BUILDING STORY 3 THERMALZONE 3,486.05,180.7,3453.882,7.106,19.116,0.000,0.700,0.200,0.100,1.000,General,0.000,3453.882
 Lights Internal Gains Nominal, BUILDING STORY 3 THERMALZONE 4 FULLSERVICERESTAURANT KITCHEN LIGHTS 1,RESTAURANTSITDOWN BLDG_LIGHT_KITCHEN_SCH_2010_2013,BUILDING STORY 3 THERMALZONE 4,141.27,52.5,1003.852,7.106,19.116,0.000,0.700,0.200,0.100,1.000,General,0.000,1003.852
 Lights Internal Gains Nominal, BUILDING STORY 3 THERMALZONE 5 FULLSERVICERESTAURANT KITCHEN LIGHTS 1,RESTAURANTSITDOWN BLDG_LIGHT_KITCHEN_SCH_2010_2013,BUILDING STORY 3 THERMALZONE 5,118.61,44.1,842.869,7.106,19.116,0.000,0.700,0.200,0.100,1.000,General,0.000,842.869
 Lights Internal Gains Nominal, BUILDING STORY 3 THERMALZONE 6 FULLSERVICERESTAURANT KITCHEN LIGHTS 1,RESTAURANTSITDOWN BLDG_LIGHT_KITCHEN_SCH_2010_2013,BUILDING STORY 3 THERMALZONE 6,147.85,55.0,1050.637,7.106,19.116,0.000,0.700,0.200,0.100,1.000,General,0.000,1050.637
 Lights Internal Gains Nominal, BUILDING STORY 3 THERMALZONE 7 FULLSERVICERESTAURANT KITCHEN LIGHTS 1,RESTAURANTSITDOWN BLDG_LIGHT_KITCHEN_SCH_2010_2013,BUILDING STORY 3 THERMALZONE 7,251.25,93.4,1785.378,7.106,19.116,0.000,0.700,0.200,0.100,1.000,General,0.000,1785.378
 Lights Internal Gains Nominal, BUILDING STORY 4 THERMALZONE FULLSERVICERESTAURANT DINING LIGHTS 2,RESTAURANTSITDOWN BLDG_LIGHT_DINING_SCH_2013,BUILDING STORY 4 THERMALZONE,15618.49,11768.1,149623.263,9.580,12.714,0.000,0.700,0.200,0.100,1.000,General,0.000,149623.263
 Lights Internal Gains Nominal, BUILDING STORY 4 THERMALZONE 1 FULLSERVICERESTAURANT DINING LIGHTS 2,RESTAURANTSITDOWN BLDG_LIGHT_DINING_SCH_2013,BUILDING STORY 4 THERMALZONE 1,522.00,393.3,5000.696,9.580,12.714,0.000,0.700,0.200,0.100,1.000,General,0.000,5000.696
 Lights Internal Gains Nominal, BUILDING STORY 4 THERMALZONE 2 FULLSERVICERESTAURANT DINING LIGHTS 2,RESTAURANTSITDOWN BLDG_LIGHT_DINING_SCH_2013,BUILDING STORY 4 THERMALZONE 2,175.32,132.1,1679.577,9.580,12.714,0.000,0.700,0.200,0.100,1.000,General,0.000,1679.577
 Lights Internal Gains Nominal, BUILDING STORY 4 THERMALZONE 3 FULLSERVICERESTAURANT DINING LIGHTS 2,RESTAURANTSITDOWN BLDG_LIGHT_DINING_SCH_2013,BUILDING STORY 4 THERMALZONE 3,486.05,366.2,4656.266,9.580,12.714,0.000,0.700,0.200,0.100,1.000,General,0.000,4656.266
 Lights Internal Gains Nominal, BUILDING STORY 4 THERMALZONE 4 FULLSERVICERESTAURANT DINING LIGHTS 2,RESTAURANTSITDOWN BLDG_LIGHT_DINING_SCH_2013,BUILDING STORY 4 THERMALZONE 4,141.27,106.4,1353.318,9.580,12.714,0.000,0.700,0.200,0.100,1.000,General,0.000,1353.318
 Lights Internal Gains Nominal, BUILDING STORY 4 THERMALZONE 5 FULLSERVICERESTAURANT DINING LIGHTS 2,RESTAURANTSITDOWN BLDG_LIGHT_DINING_SCH_2013,BUILDING STORY 4 THERMALZONE 5,118.61,89.4,1136.293,9.580,12.714,0.000,0.700,0.200,0.100,1.000,General,0.000,1136.293
 Lights Internal Gains Nominal, BUILDING STORY 4 THERMALZONE 6 FULLSERVICERESTAURANT DINING LIGHTS 2,RESTAURANTSITDOWN BLDG_LIGHT_DINING_SCH_2013,BUILDING STORY 4 THERMALZONE 6,147.85,111.4,1416.390,9.580,12.714,0.000,0.700,0.200,0.100,1.000,General,0.000,1416.390
 Lights Internal Gains Nominal, BUILDING STORY 4 THERMALZONE 7 FULLSERVICERESTAURANT DINING LIGHTS 2,RESTAURANTSITDOWN BLDG_LIGHT_DINING_SCH_2013,BUILDING STORY 4 THERMALZONE 7,251.25,189.3,2406.913,9.580,12.714,0.000,0.700,0.200,0.100,1.000,General,0.000,2406.913
! <ElectricEquipment Internal Gains Nominal>,Name,Schedule Name,Zone Name,Zone Floor Area {m2},# Zone Occupants,Equipment Level {W},Equipment/Floor Area {W/m2},Equipment per person {W/person},Fraction Latent,Fraction Radiant,Fraction Lost,Fraction Convected,End-Use SubCategory,Nominal Minimum Equipment Level {W},Nominal Maximum Equipment Level {W}
 ElectricEquipment Internal Gains Nominal, BUILDING STORY 1 THERMALZONE 35 ELEVATOR FANS,ELEVATOR SCHEDULE 3,BUILDING STORY 1 THERMALZONE,15618.49,796.4,968.679,6.202E-002,1.216,0.000,0.500,0.000,0.500,Elevators,0.000,968.679
 ElectricEquipment Internal Gains Nominal, BUILDING STORY 1 THERMALZONE 1 35 ELEVATOR FANS,ELEVATOR SCHEDULE 3,BUILDING STORY 1 THERMALZONE 1,522.00,26.6,32.375,6.202E-002,1.216,0.000,0.500,0.000,0.500,Elevators,0.000,32.375
 ElectricEquipment Internal Gains Nominal, BUILDING STORY 1 THERMALZONE 2 35 ELEVATOR FANS,ELEVATOR SCHEDULE 3,BUILDING STORY 1 THERMALZONE 2,175.32,8.9,10.874,6.202E-002,1.216,0.000,0.500,0.000,0.500,Elevators,0.000,10.874
 ElectricEquipment Internal Gains Nominal, BUILDING STORY 1 THERMALZONE 3 35 ELEVATOR FANS,ELEVATOR SCHEDULE 3,BUILDING STORY 1 THERMALZONE 3,486.05,24.8,30.145,6.202E-002,1.216,0.000,0.500,0.000,0.500,Elevators,0.000,30.145
 ElectricEquipment Internal Gains Nominal, BUILDING STORY 1 THERMALZONE 4 35 ELEVATOR FANS,ELEVATOR SCHEDULE 3,BUILDING STORY 1 THERMALZONE 4,141.27,7.2,8.762,6.202E-002,1.216,0.000,0.500,0.000,0.500,Elevators,0.000,8.762
 ElectricEquipment Internal Gains Nominal, BUILDING STORY 1 THERMALZONE 5 35 ELEVATOR FANS,ELEVATOR SCHEDULE 3,BUILDING STORY 1 THERMALZONE 5,118.61,6.0,7.357,6.202E-002,1.216,0.000,0.500,0.000,0.500,Elevators,0.000,7.357
 ElectricEquipment Internal Gains Nominal, BUILDING STORY 1 THERMALZONE 6 35 ELEVATOR FANS,ELEVATOR SCHEDULE 3,BUILDING STORY 1 THERMALZONE 6,147.85,7.5,9.170,6.202E-002,1.216,0.000,0.500,0.000,0.500,Elevators,0.000,9.170
 ElectricEquipment Internal Gains Nominal, BUILDING STORY 1 THERMALZONE 7 35 ELEVATOR FANS,ELEVATOR SCHEDULE 3,BUILDING STORY 1 THERMALZONE 7,251.25,12.8,15.583,6.202E-002,1.216,0.000,0.500,0.000,0.500,Elevators,0.000,15.583
 ElectricEquipment Internal Gains Nominal, BUILDING STORY 1 THERMALZONE 35 ELEVATOR LIFT MOTORS,ELEVATOR SCHEDULE 1,BUILDING STORY 1 THERMALZONE,15618.49,796.4,502369.621,32.165,630.828,0.000,0.000,1.000,0.000,Elevators,0.000,502369.621
 ElectricEquipment Internal Gains Nominal, BUILDING STORY 1 THERMALZONE 1 35 ELEVATOR LIFT MOTORS,ELEVATOR SCHEDULE 1,BUILDING STORY 1 THERMALZONE 1,522.00,26.6,16790.156,32.165,630.828,0.000,0.000,1.000,0.000,Elevators,0.000,16790.156
 ElectricEquipment Internal Gains Nominal, BUILDING STORY 1 THERMALZONE 2 35 ELEVATOR LIFT MOTORS,ELEVATOR SCHEDULE 1,BUILDING STORY 1 THERMALZONE 2,175.32,8.9,5639.288,32.165,630.828,0.000,0.000,1.000,0.000,Elevators,0.000,5639.288
 ElectricEquipment Internal Gains Nominal, BUILDING STORY 1 THERMALZONE 3 35 ELEVATOR LIFT MOTORS,ELEVATOR SCHEDULE 1,BUILDING STORY 1 THERMALZONE 3,486.05,24.8,15633.711,32.165,630.828,0.000,0.000,1.000,0.000,Elevators,0.000,15633.711
 ElectricEquipment Internal Gains Nominal, BUILDING STORY 1 THERMALZONE 4 35 ELEVATOR LIFT MOTORS,ELEVATOR SCHEDULE 1,BUILDING STORY 1 THERMALZONE 4,141.27,7.2,4543.850,32.165,630.828,0.000,0.000,1.000,0.000,Elevators,0.000,4543.850
 ElectricEquipment Internal Gains Nominal, BUILDING STORY 1 THERMALZONE 5 35 ELEVATOR LIFT MOTORS,ELEVATOR SCHEDULE 1,BUILDING STORY 1 THERMALZONE 5,118.61,6.0,3815.176,32.165,630.828,0.000,0.000,1.000,0.000,Elevators,0.000,3815.176
 ElectricEquipment Internal Gains Nominal, BUILDING STORY 1 THERMALZONE 6 35 ELEVATOR LIFT MOTORS,ELEVATOR SCHEDULE 1,BUILDING STORY 1 THERMALZONE 6,147.85,7.5,4755.620,32.165,630.828,0.000,0.000,1.000,0.000,Elevators,0.000,4755.620
 ElectricEquipment Internal Gains Nominal, BUILDING STORY 1 THERMALZONE 7 35 ELEVATOR LIFT MOTORS,ELEVATOR SCHEDULE 1,BUILDING STORY 1 THERMALZONE 7,251.25,12.8,8081.364,32.165,630.828,0.000,0.000,1.000,0.000,Elevators,0.000,8081.364
 ElectricEquipment Internal Gains Nominal, BUILDING STORY 1 THERMALZONE 35 ELEVATOR LIGHTS,ELEVATOR SCHEDULE 2,BUILDING STORY 1 THERMALZONE,15618.49,796.4,1012.204,6.481E-002,1.271,0.000,0.500,0.000,0.500,Elevators,0.000,1012.204
 ElectricEquipment Internal Gains Nominal, BUILDING STORY 1 THERMALZONE 1 35 ELEVATOR LIGHTS,ELEVATOR SCHEDULE 2,BUILDING STORY 1 THERMALZONE 1,522.00,26.6,33.830,6.481E-002,1.271,0.000,0.500,0.000,0.500,Elevators,0.000,33.830
 ElectricEquipment Internal Gains Nominal, BUILDING STORY 1 THERMALZONE 2 35 ELEVATOR LIGHTS,ELEVATOR SCHEDULE 2,BUILDING STORY 1 THERMALZONE 2,175.32,8.9,11.362,6.481E-002,1.271,0.000,0.500,0.000,0.500,Elevators,0.000,11.362
 ElectricEquipment Internal Gains Nominal, BUILDING STORY 1 THERMALZONE 3 35 ELEVATOR LIGHTS,ELEVATOR SCHEDULE 2,BUILDING STORY 1 THERMALZONE 3,486.05,24.8,31.500,6.481E-002,1.271,0.000,0.500,0.000,0.500,Elevators,0.000,31.500
 ElectricEquipment Internal Gains Nominal, BUILDING STORY 1 THERMALZONE 4 35 ELEVATOR LIGHTS,ELEVATOR SCHEDULE 2,BUILDING STORY 1 THERMALZONE 4,141.27,7.2,9.155,6.481E-002,1.271,0.000,0.500,0.000,0.500,Elevators,0.000,9.155
 ElectricEquipment Internal Gains Nominal, BUILDING STORY 1 THERMALZONE 5 35 ELEVATOR LIGHTS,ELEVATOR SCHEDULE 2,BUILDING STORY 1 THERMALZONE 5,118.61,6.0,7.687,6.481E-002,1.271,0.000,0.500,0.000,0.500,Elevators,0.000,7.687
 ElectricEquipment Internal Gains Nominal, BUILDING STORY 1 THERMALZONE 6 35 ELEVATOR LIGHTS,ELEVATOR SCHEDULE 2,BUILDING STORY 1 THERMALZONE 6,147.85,7.5,9.582,6.481E-002,1.271,0.000,0.500,0.000,0.500,Elevators,0.000,9.582
 ElectricEquipment Internal Gains Nominal, BUILDING STORY 1 THERMALZONE 7 35 ELEVATOR LIGHTS,ELEVATOR SCHEDULE 2,BUILDING STORY 1 THERMALZONE 7,251.25,12.8,16.283,6.481E-002,1.271,0.000,0.500,0.000,0.500,Elevators,0.000,16.283
 ElectricEquipment Internal Gains Nominal, BUILDING STORY 1 THERMALZONE OFFICE OFFICELARGE DATA CENTER ELEC EQUIP 1,DATACENTER_EQUIP_SCH,BUILDING STORY 1 THERMALZONE,15618.49,796.4,63211.626,4.047,79.375,0.000,0.500,0.000,0.500,General,0.000,63211.626
 ElectricEquipment Internal Gains Nominal, BUILDING STORY 1 THERMALZONE 1 OFFICE OFFICELARGE DATA CENTER ELEC EQUIP 1,DATACENTER_EQUIP_SCH,BUILDING STORY 1 THERMALZONE 1,522.00,26.6,2112.654,4.047,79.375,0.000,0.500,0.000,0.500,General,0.000,2112.654
 ElectricEquipment Internal Gains Nominal, BUILDING STORY 1 THERMALZONE 2 OFFICE OFFICELARGE DATA CENTER ELEC EQUIP 1,DATACENTER_EQUIP_SCH,BUILDING STORY 1 THERMALZONE 2,175.32,8.9,709.574,4.047,79.375,0.000,0.500,0.000,0.500,General,0.000,709.574
 ElectricEquipment Internal Gains Nominal, BUILDING STORY 1 THERMALZONE 3 OFFICE OFFICELARGE DATA CENTER ELEC EQUIP 1,DATACENTER_EQUIP_SCH,BUILDING STORY 1 THERMALZONE 3,486.05,24.8,1967.142,4.047,79.375,0.000,0.500,0.000,0.500,General,0.000,1967.142
 ElectricEquipment Internal Gains Nominal, BUILDING STORY 1 THERMALZONE 4 OFFICE OFFICELARGE DATA CENTER ELEC EQUIP 1,DATACENTER_EQUIP_SCH,BUILDING STORY 1 THERMALZONE 4,141.27,7.2,571.739,4.047,79.375,0.000,0.500,0.000,0.500,General,0.000,571.739
 ElectricEquipment Internal Gains Nominal, BUILDING STORY 1 THERMALZONE 5 OFFICE OFFICELARGE DATA CENTER ELEC EQUIP 1,DATACENTER_EQUIP_SCH,BUILDING STORY 1 THERMALZONE 5,118.61,6.0,480.052,4.047,79.375,0.000,0.500,0.000,0.500,General,0.000,480.052
 ElectricEquipment Internal Gains Nominal, BUILDING STORY 1 THERMALZONE 6 OFFICE OFFICELARGE DATA CENTER ELEC EQUIP 1,DATACENTER_EQUIP_SCH,BUILDING STORY 1 THERMALZONE 6,147.85,7.5,598.385,4.047,79.375,0.000,0.500,0.000,0.500,General,0.000,598.385
 ElectricEquipment Internal Gains Nominal, BUILDING STORY 1 THERMALZONE 7 OFFICE OFFICELARGE DATA CENTER ELEC EQUIP 1,DATACENTER_EQUIP_SCH,BUILDING STORY 1 THERMALZONE 7,251.25,12.8,1016.853,4.047,79.375,0.000,0.500,0.000,0.500,General,0.000,1016.853
 ElectricEquipment Internal Gains Nominal, BUILDING STORY 1 THERMALZONE OFFICE OFFICELARGE MAIN DATA CENTER ELEC EQUIP 1,DATACENTER_EQUIP_SCH,BUILDING STORY 1 THERMALZONE,15618.49,796.4,255704.475,16.372,321.089,0.000,0.500,0.000,0.500,General,0.000,255704.475
 ElectricEquipment Internal Gains Nominal, BUILDING STORY 1 THERMALZONE 1 OFFICE OFFICELARGE MAIN DATA CENTER ELEC EQUIP 1,DATACENTER_EQUIP_SCH,BUILDING STORY 1 THERMALZONE 1,522.00,26.6,8546.134,16.372,321.089,0.000,0.500,0.000,0.500,General,0.000,8546.134
 ElectricEquipment Internal Gains Nominal, BUILDING STORY 1 THERMALZONE 2 OFFICE OFFICELARGE MAIN DATA CENTER ELEC EQUIP 1,DATACENTER_EQUIP_SCH,BUILDING STORY 1 THERMALZONE 2,175.32,8.9,2870.379,16.372,321.089,0.000,0.500,0.000,0.500,General,0.000,2870.379
 ElectricEquipment Internal Gains Nominal, BUILDING STORY 1 THERMALZONE 3 OFFICE OFFICELARGE MAIN DATA CENTER ELEC EQUIP 1,DATACENTER_EQUIP_SCH,BUILDING STORY 1 THERMALZONE 3,486.05,24.8,7957.507,16.372,321.089,0.000,0.500,0.000,0.500,General,0.000,7957.507
 ElectricEquipment Internal Gains Nominal, BUILDING STORY 1 THERMALZONE 4 OFFICE OFFICELARGE MAIN DATA CENTER ELEC EQUIP 1,DATACENTER_EQUIP_SCH,BUILDING STORY 1 THERMALZONE 4,141.27,7.2,2312.805,16.372,321.089,0.000,0.500,0.000,0.500,General,0.000,2312.805
 ElectricEquipment Internal Gains Nominal, BUILDING STORY 1 THERMALZONE 5 OFFICE OFFICELARGE MAIN DATA CENTER ELEC EQUIP 1,DATACENTER_EQUIP_SCH,BUILDING STORY 1 THERMALZONE 5,118.61,6.0,1941.912,16.372,321.089,0.000,0.500,0.000,0.500,General,0.000,1941.912
 ElectricEquipment Internal Gains Nominal, BUILDING STORY 1 THERMALZONE 6 OFFICE OFFICELARGE MAIN DATA CENTER ELEC EQUIP 1,DATACENTER_EQUIP_SCH,BUILDING STORY 1 THERMALZONE 6,147.85,7.5,2420.595,16.372,321.089,0.000,0.500,0.000,0.500,General,0.000,2420.595
 ElectricEquipment Internal Gains Nominal, BUILDING STORY 1 THERMALZONE 7 OFFICE OFFICELARGE MAIN DATA CENTER ELEC EQUIP 1,DATACENTER_EQUIP_SCH,BUILDING STORY 1 THERMALZONE 7,251.25,12.8,4113.388,16.372,321.089,0.000,0.500,0.000,0.500,General,0.000,4113.388
 ElectricEquipment Internal Gains Nominal, BUILDING STORY 1 THERMALZONE OFFICE WHOLEBUILDING - LG OFFICE ELEC EQUIP 1,OFFICELARGE BLDG_EQUIP_SCH,BUILDING STORY 1 THERMALZONE,15618.49,796.4,119412.550,7.646,149.947,0.000,0.500,0.000,0.500,General,0.000,119412.550
 ElectricEquipment Internal Gains Nominal, BUILDING STORY 1 THERMALZONE 1 OFFICE WHOLEBUILDING - LG OFFICE ELEC EQUIP 1,OFFICELARGE BLDG_EQUIP_SCH,BUILDING STORY 1 THERMALZONE 1,522.00,26.6,3990.997,7.646,149.947,0.000,0.500,0.000,0.500,General,0.000,3990.997
 ElectricEquipment Internal Gains Nominal, BUILDING STORY 1 THERMALZONE 2 OFFICE WHOLEBUILDING - LG OFFICE ELEC EQUIP 1,OFFICELARGE BLDG_EQUIP_SCH,BUILDING STORY 1 THERMALZONE 2,175.32,8.9,1340.451,7.646,149.947,0.000,0.500,0.000,0.500,General,0.000,1340.451
 ElectricEquipment Internal Gains Nominal, BUILDING STORY 1 THERMALZONE 3 OFFICE WHOLEBUILDING - LG OFFICE ELEC EQUIP 1,OFFICELARGE BLDG_EQUIP_SCH,BUILDING STORY 1 THERMALZONE 3,486.05,24.8,3716.111,7.646,149.947,0.000,0.500,0.000,0.500,General,0.000,3716.111
 ElectricEquipment Internal Gains Nominal, BUILDING STORY 1 THERMALZONE 4 OFFICE WHOLEBUILDING - LG OFFICE ELEC EQUIP 1,OFFICELARGE BLDG_EQUIP_SCH,BUILDING STORY 1 THERMALZONE 4,141.27,7.2,1080.067,7.646,149.947,0.000,0.500,0.000,0.500,General,0.000,1080.067
 ElectricEquipment Internal Gains Nominal, BUILDING STORY 1 THERMALZONE 5 OFFICE WHOLEBUILDING - LG OFFICE ELEC EQUIP 1,OFFICELARGE BLDG_EQUIP_SCH,BUILDING STORY 1 THERMALZONE 5,118.61,6.0,906.862,7.646,149.947,0.000,0.500,0.000,0.500,General,0.000,906.862
 ElectricEquipment Internal Gains Nominal, BUILDING STORY 1 THERMALZONE 6 OFFICE WHOLEBUILDING - LG OFFICE ELEC EQUIP 1,OFFICELARGE BLDG_EQUIP_SCH,BUILDING STORY 1 THERMALZONE 6,147.85,7.5,1130.404,7.646,149.947,0.000,0.500,0.000,0.500,General,0.000,1130.404
 ElectricEquipment Internal Gains Nominal, BUILDING STORY 1 THERMALZONE 7 OFFICE WHOLEBUILDING - LG OFFICE ELEC EQUIP 1,OFFICELARGE BLDG_EQUIP_SCH,BUILDING STORY 1 THERMALZONE 7,251.25,12.8,1920.929,7.646,149.947,0.000,0.500,0.000,0.500,General,0.000,1920.929
 ElectricEquipment Internal Gains Nominal, BUILDING STORY 2 THERMALZONE OFFICE WHOLEBUILDING - LG OFFICE ELEC EQUIP 2,OFFICELARGE BLDG_EQUIP_SCH,BUILDING STORY 2 THERMALZONE,15618.49,840.6,126042.379,8.070,149.947,0.000,0.500,0.000,0.500,General,0.000,126042.379
 ElectricEquipment Internal Gains Nominal, BUILDING STORY 2 THERMALZONE 1 OFFICE WHOLEBUILDING - LG OFFICE ELEC EQUIP 2,OFFICELARGE BLDG_EQUIP_SCH,BUILDING STORY 2 THERMALZONE 1,522.00,28.1,4212.578,8.070,149.947,0.000,0.500,0.000,0.500,General,0.000,4212.578
 ElectricEquipment Internal Gains Nominal, BUILDING STORY 2 THERMALZONE 2 OFFICE WHOLEBUILDING - LG OFFICE ELEC EQUIP 2,OFFICELARGE BLDG_EQUIP_SCH,BUILDING STORY 2 THERMALZONE 2,175.32,9.4,1414.873,8.070,149.947,0.000,0.500,0.000,0.500,General,0.000,1414.873
 ElectricEquipment Internal Gains Nominal, BUILDING STORY 2 THERMALZONE 3 OFFICE WHOLEBUILDING - LG OFFICE ELEC EQUIP 2,OFFICELARGE BLDG_EQUIP_SCH,BUILDING STORY 2 THERMALZONE 3,486.05,26.2,3922.431,8.070,149.947,0.000,0.500,0.000,0.500,General,0.000,3922.431
 ElectricEquipment Internal Gains Nominal, BUILDING STORY 2 THERMALZONE 4 OFFICE WHOLEBUILDING - LG OFFICE ELEC EQUIP 2,OFFICELARGE BLDG_EQUIP_SCH,BUILDING STORY 2 THERMALZONE 4,141.27,7.6,1140.032,8.070,149.947,0.000,0.500,0.000,0.500,General,0.000,1140.032
 ElectricEquipment Internal Gains Nominal, BUILDING STORY 2 THERMALZONE 5 OFFICE WHOLEBUILDING - LG OFFICE ELEC EQUIP 2,OFFICELARGE BLDG_EQUIP_SCH,BUILDING STORY 2 THERMALZONE 5,118.61,6.4,957.211,8.070,149.947,0.000,0.500,0.000,0.500,General,0.000,957.211
 ElectricEquipment Internal Gains Nominal, BUILDING STORY 2 THERMALZONE 6 OFFICE WHOLEBUILDING - LG OFFICE ELEC EQUIP 2,OFFICELARGE BLDG_EQUIP_SCH,BUILDING STORY 2 THERMALZONE 6,147.85,8.0,1193.165,8.070,149.947,0.000,0.500,0.000,0.500,General,0.000,1193.165
 ElectricEquipment Internal Gains Nominal, BUILDING STORY 2 THERMALZONE 7 OFFICE WHOLEBUILDING - LG OFFICE ELEC EQUIP 2,OFFICELARGE BLDG_EQUIP_SCH,BUILDING STORY 2 THERMALZONE 7,251.25,13.5,2027.580,8.070,149.947,0.000,0.500,0.000,0.500,General,0.000,2027.580
 ElectricEquipment Internal Gains Nominal, BUILDING STORY 3 THERMALZONE FULLSERVICERESTAURANT DINING ELEC EQUIP 1,RESTAURANTSITDOWN BLDG_EQUIP_SCH,BUILDING STORY 3 THERMALZONE,15618.49,5806.1,460796.074,29.503,79.365,0.250,0.300,0.000,0.450,General,0.000,133630.862
 ElectricEquipment Internal Gains Nominal, BUILDING STORY 3 THERMALZONE 1 FULLSERVICERESTAURANT DINING ELEC EQUIP 1,RESTAURANTSITDOWN BLDG_EQUIP_SCH,BUILDING STORY 3 THERMALZONE 1,522.00,194.0,15400.689,29.503,79.365,0.250,0.300,0.000,0.450,General,0.000,4466.200
 ElectricEquipment Internal Gains Nominal, BUILDING STORY 3 THERMALZONE 2 FULLSERVICERESTAURANT DINING ELEC EQUIP 1,RESTAURANTSITDOWN BLDG_EQUIP_SCH,BUILDING STORY 3 THERMALZONE 2,175.32,65.2,5172.609,29.503,79.365,0.250,0.300,0.000,0.450,General,0.000,1500.057
 ElectricEquipment Internal Gains Nominal, BUILDING STORY 3 THERMALZONE 3 FULLSERVICERESTAURANT DINING ELEC EQUIP 1,RESTAURANTSITDOWN BLDG_EQUIP_SCH,BUILDING STORY 3 THERMALZONE 3,486.05,180.7,14339.945,29.503,79.365,0.250,0.300,0.000,0.450,General,0.000,4158.584
 ElectricEquipment Internal Gains Nominal, BUILDING STORY 3 THERMALZONE 4 FULLSERVICERESTAURANT DINING ELEC EQUIP 1,RESTAURANTSITDOWN BLDG_EQUIP_SCH,BUILDING STORY 3 THERMALZONE 4,141.27,52.5,4167.824,29.503,79.365,0.250,0.300,0.000,0.450,General,0.000,1208.669
 ElectricEquipment Internal Gains Nominal, BUILDING STORY 3 THERMALZONE 5 FULLSERVICERESTAURANT DINING ELEC EQUIP 1,RESTAURANTSITDOWN BLDG_EQUIP_SCH,BUILDING STORY 3 THERMALZONE 5,118.61,44.1,3499.452,29.503,79.365,0.250,0.300,0.000,0.450,General,0.000,1014.841
 ElectricEquipment Internal Gains Nominal, BUILDING STORY 3 THERMALZONE 6 FULLSERVICERESTAURANT DINING ELEC EQUIP 1,RESTAURANTSITDOWN BLDG_EQUIP_SCH,BUILDING STORY 3 THERMALZONE 6,147.85,55.0,4362.069,29.503,79.365,0.250,0.300,0.000,0.450,General,0.000,1265.000
 ElectricEquipment Internal Gains Nominal, BUILDING STORY 3 THERMALZONE 7 FULLSERVICERESTAURANT DINING ELEC EQUIP 1,RESTAURANTSITDOWN BLDG_EQUIP_SCH,BUILDING STORY 3 THERMALZONE 7,251.25,93.4,7412.592,29.503,79.365,0.250,0.300,0.000,0.450,General,0.000,2149.652
 ElectricEquipment Internal Gains Nominal, BUILDING STORY 3 THERMALZONE FULLSERVICERESTAURANT KITCHEN ELEC EQUIP 1,RESTAURANTSITDOWN BLDG_EQUIP_SCH,BUILDING STORY 3 THERMALZONE,15618.49,5806.1,3442405.610,220.406,592.899,0.250,0.300,0.200,0.250,General,0.000,998297.627
 ElectricEquipment Internal Gains Nominal, BUILDING STORY 3 THERMALZONE 1 FULLSERVICERESTAURANT KITCHEN ELEC EQUIP 1,RESTAURANTSITDOWN BLDG_EQUIP_SCH,BUILDING STORY 3 THERMALZONE 1,522.00,194.0,115051.799,220.406,592.899,0.250,0.300,0.200,0.250,General,0.000,33365.022
 ElectricEquipment Internal Gains Nominal, BUILDING STORY 3 THERMALZONE 2 FULLSERVICERESTAURANT KITCHEN ELEC EQUIP 1,RESTAURANTSITDOWN BLDG_EQUIP_SCH,BUILDING STORY 3 THERMALZONE 2,175.32,65.2,38642.295,220.406,592.899,0.250,0.300,0.200,0.250,General,0.000,11206.265
 ElectricEquipment Internal Gains Nominal, BUILDING STORY 3 THERMALZONE 3 FULLSERVICERESTAURANT KITCHEN ELEC EQUIP 1,RESTAURANTSITDOWN BLDG_EQUIP_SCH,BUILDING STORY 3 THERMALZONE 3,486.05,180.7,107127.444,220.406,592.899,0.250,0.300,0.200,0.250,General,0.000,31066.959
 ElectricEquipment Internal Gains Nominal, BUILDING STORY 3 THERMALZONE 4 FULLSERVICERESTAURANT KITCHEN ELEC EQUIP 1,RESTAURANTSITDOWN BLDG_EQUIP_SCH,BUILDING STORY 3 THERMALZONE 4,141.27,52.5,31135.989,220.406,592.899,0.250,0.300,0.200,0.250,General,0.000,9029.437
 ElectricEquipment Internal Gains Nominal, BUILDING STORY 3 THERMALZONE 5 FULLSERVICERESTAURANT KITCHEN ELEC EQUIP 1,RESTAURANTSITDOWN BLDG_EQUIP_SCH,BUILDING STORY 3 THERMALZONE 5,118.61,44.1,26142.870,220.406,592.899,0.250,0.300,0.200,0.250,General,0.000,7581.432
 ElectricEquipment Internal Gains Nominal, BUILDING STORY 3 THERMALZONE 6 FULLSERVICERESTAURANT KITCHEN ELEC EQUIP 1,RESTAURANTSITDOWN BLDG_EQUIP_SCH,BUILDING STORY 3 THERMALZONE 6,147.85,55.0,32587.107,220.406,592.899,0.250,0.300,0.200,0.250,General,0.000,9450.261
 ElectricEquipment Internal Gains Nominal, BUILDING STORY 3 THERMALZONE 7 FULLSERVICERESTAURANT KITCHEN ELEC EQUIP 1,RESTAURANTSITDOWN BLDG_EQUIP_SCH,BUILDING STORY 3 THERMALZONE 7,251.25,93.4,55376.224,220.406,592.899,0.250,0.300,0.200,0.250,General,0.000,16059.105
 ElectricEquipment Internal Gains Nominal, BUILDING STORY 4 THERMALZONE FULLSERVICERESTAURANT DINING ELEC EQUIP 2,RESTAURANTSITDOWN BLDG_EQUIP_SCH,BUILDING STORY 4 THERMALZONE,15618.49,11768.1,1014075.867,64.928,86.171,0.250,0.300,0.000,0.450,General,0.000,294082.002
 ElectricEquipment Internal Gains Nominal, BUILDING STORY 4 THERMALZONE 1 FULLSERVICERESTAURANT DINING ELEC EQUIP 2,RESTAURANTSITDOWN BLDG_EQUIP_SCH,BUILDING STORY 4 THERMALZONE 1,522.00,393.3,33892.361,64.928,86.171,0.250,0.300,0.000,0.450,General,0.000,9828.785
 ElectricEquipment Internal Gains Nominal, BUILDING STORY 4 THERMALZONE 2 FULLSERVICERESTAURANT DINING ELEC EQUIP 2,RESTAURANTSITDOWN BLDG_EQUIP_SCH,BUILDING STORY 4 THERMALZONE 2,175.32,132.1,11383.382,64.928,86.171,0.250,0.300,0.000,0.450,General,0.000,3301.181
 ElectricEquipment Internal Gains Nominal, BUILDING STORY 4 THERMALZONE 3 FULLSERVICERESTAURANT DINING ELEC EQUIP 2,RESTAURANTSITDOWN BLDG_EQUIP_SCH,BUILDING STORY 4 THERMALZONE 3,486.05,366.2,31557.977,64.928,86.171,0.250,0.300,0.000,0.450,General,0.000,9151.813
 ElectricEquipment Internal Gains Nominal, BUILDING STORY 4 THERMALZONE 4 FULLSERVICERESTAURANT DINING ELEC EQUIP 2,RESTAURANTSITDOWN BLDG_EQUIP_SCH,BUILDING STORY 4 THERMALZONE 4,141.27,106.4,9172.148,64.928,86.171,0.250,0.300,0.000,0.450,General,0.000,2659.923
 ElectricEquipment Internal Gains Nominal, BUILDING STORY 4 THERMALZONE 5 FULLSERVICERESTAURANT DINING ELEC EQUIP 2,RESTAURANTSITDOWN BLDG_EQUIP_SCH,BUILDING STORY 4 THERMALZONE 5,118.61,89.4,7701.258,64.928,86.171,0.250,0.300,0.000,0.450,General,0.000,2233.365
 ElectricEquipment Internal Gains Nominal, BUILDING STORY 4 THERMALZONE 6 FULLSERVICERESTAURANT DINING ELEC EQUIP 2,RESTAURANTSITDOWN BLDG_EQUIP_SCH,BUILDING STORY 4 THERMALZONE 6,147.85,111.4,9599.624,64.928,86.171,0.250,0.300,0.000,0.450,General,0.000,2783.891
 ElectricEquipment Internal Gains Nominal, BUILDING STORY 4 THERMALZONE 7 FULLSERVICERESTAURANT DINING ELEC EQUIP 2,RESTAURANTSITDOWN BLDG_EQUIP_SCH,BUILDING STORY 4 THERMALZONE 7,251.25,189.3,16312.922,64.928,86.171,0.250,0.300,0.000,0.450,General,0.000,4730.747
! <GasEquipment Internal Gains Nominal>,Name,Schedule Name,Zone Name,Zone Floor Area {m2},# Zone Occupants,Equipment Level {W},Equipment/Floor Area {W/m2},Equipment per person {W/person},Fraction Latent,Fraction Radiant,Fraction Lost,Fraction Convected,End-Use SubCategory,Nominal Minimum Equipment Level {W},Nominal Maximum Equipment Level {W}
 GasEquipment Internal Gains Nominal, BUILDING STORY 3 THERMALZONE FULLSERVICERESTAURANT KITCHEN GAS EQUIP 1,RESTAURANTSITDOWN REST_GAS_EQUIP_SCH,BUILDING STORY 3 THERMALZONE,15618.49,5806.1,5532518.812,354.229,952.888,0.100,0.200,0.700,0.000,General,0.000,1604430.456
 GasEquipment Internal Gains Nominal, BUILDING STORY 3 THERMALZONE 1 FULLSERVICERESTAURANT KITCHEN GAS EQUIP 1,RESTAURANTSITDOWN REST_GAS_EQUIP_SCH,BUILDING STORY 3 THERMALZONE 1,522.00,194.0,184907.392,354.229,952.888,0.100,0.200,0.700,0.000,General,0.000,53623.144
 GasEquipment Internal Gains Nominal, BUILDING STORY 3 THERMALZONE 2 FULLSERVICERESTAURANT KITCHEN GAS EQUIP 1,RESTAURANTSITDOWN REST_GAS_EQUIP_SCH,BUILDING STORY 3 THERMALZONE 2,175.32,65.2,62104.600,354.229,952.888,0.100,0.200,0.700,0.000,General,0.000,18010.334
 GasEquipment Internal Gains Nominal, BUILDING STORY 3 THERMALZONE 3 FULLSERVICERESTAURANT KITCHEN GAS EQUIP 1,RESTAURANTSITDOWN REST_GAS_EQUIP_SCH,BUILDING STORY 3 THERMALZONE 3,486.05,180.7,172171.635,354.229,952.888,0.100,0.200,0.700,0.000,General,0.000,49929.774
 GasEquipment Internal Gains Nominal, BUILDING STORY 3 THERMALZONE 4 FULLSERVICERESTAURANT KITCHEN GAS EQUIP 1,RESTAURANTSITDOWN REST_GAS_EQUIP_SCH,BUILDING STORY 3 THERMALZONE 4,141.27,52.5,50040.718,354.229,952.888,0.100,0.200,0.700,0.000,General,0.000,14511.808
 GasEquipment Internal Gains Nominal, BUILDING STORY 3 THERMALZONE 5 FULLSERVICERESTAURANT KITCHEN GAS EQUIP 1,RESTAURANTSITDOWN REST_GAS_EQUIP_SCH,BUILDING STORY 3 THERMALZONE 5,118.61,44.1,42015.944,354.229,952.888,0.100,0.200,0.700,0.000,General,0.000,12184.624
 GasEquipment Internal Gains Nominal, BUILDING STORY 3 THERMALZONE 6 FULLSERVICERESTAURANT KITCHEN GAS EQUIP 1,RESTAURANTSITDOWN REST_GAS_EQUIP_SCH,BUILDING STORY 3 THERMALZONE 6,147.85,55.0,52372.905,354.229,952.888,0.100,0.200,0.700,0.000,General,0.000,15188.142
 GasEquipment Internal Gains Nominal, BUILDING STORY 3 THERMALZONE 7 FULLSERVICERESTAURANT KITCHEN GAS EQUIP 1,RESTAURANTSITDOWN REST_GAS_EQUIP_SCH,BUILDING STORY 3 THERMALZONE 7,251.25,93.4,88998.810,354.229,952.888,0.100,0.200,0.700,0.000,General,0.000,25809.655
! <Shadowing/Sun Position Calculations Annual Simulations>, Shading Calculation Method, Shading Calculation Update Frequency Method, Shading Calculation Update Frequency {days}, Maximum Figures in Shadow Overlap Calculations {}, Polygon Clipping Algorithm, Pixel Counting Resolution, Sky Diffuse Modeling Algorithm, Output External Shading Calculation Results, Disable Self-Shading Within Shading Zone Groups, Disable Self-Shading From Shading Zone Groups to Other Zones
Shadowing/Sun Position Calculations Annual Simulations,PolygonClipping,Periodic,20,15000,SutherlandHodgman,512,SimpleSkyDiffuseModeling,No,No,No
! <Zone/Window Adjacency Daylighting Counts>, Zone Name, Number of Exterior Windows, Number of Exterior Windows in Adjacent Zones
Zone/Window Adjacency Daylighting Counts, BUILDING STORY 1 THERMALZONE 1,1,0
Zone/Window Adjacency Daylighting Counts, BUILDING STORY 1 THERMALZONE 2,1,0
Zone/Window Adjacency Daylighting Counts, BUILDING STORY 1 THERMALZONE 3,1,0
Zone/Window Adjacency Daylighting Counts, BUILDING STORY 1 THERMALZONE 4,1,0
Zone/Window Adjacency Daylighting Counts, BUILDING STORY 1 THERMALZONE 5,1,0
Zone/Window Adjacency Daylighting Counts, BUILDING STORY 1 THERMALZONE 6,1,0
Zone/Window Adjacency Daylighting Counts, BUILDING STORY 1 THERMALZONE 7,1,0
Zone/Window Adjacency Daylighting Counts, BUILDING STORY 2 THERMALZONE 1,1,0
Zone/Window Adjacency Daylighting Counts, BUILDING STORY 2 THERMALZONE 2,1,0
Zone/Window Adjacency Daylighting Counts, BUILDING STORY 2 THERMALZONE 3,1,0
Zone/Window Adjacency Daylighting Counts, BUILDING STORY 2 THERMALZONE 4,1,0
Zone/Window Adjacency Daylighting Counts, BUILDING STORY 2 THERMALZONE 5,1,0
Zone/Window Adjacency Daylighting Counts, BUILDING STORY 2 THERMALZONE 6,1,0
Zone/Window Adjacency Daylighting Counts, BUILDING STORY 2 THERMALZONE 7,1,0
Zone/Window Adjacency Daylighting Counts, BUILDING STORY 3 THERMALZONE 1,1,0
Zone/Window Adjacency Daylighting Counts, BUILDING STORY 3 THERMALZONE 2,1,0
Zone/Window Adjacency Daylighting Counts, BUILDING STORY 3 THERMALZONE 3,1,0
Zone/Window Adjacency Daylighting Counts, BUILDING STORY 3 THERMALZONE 4,1,0
Zone/Window Adjacency Daylighting Counts, BUILDING STORY 3 THERMALZONE 5,1,0
Zone/Window Adjacency Daylighting Counts, BUILDING STORY 3 THERMALZONE 6,1,0
Zone/Window Adjacency Daylighting Counts, BUILDING STORY 3 THERMALZONE 7,1,0
Zone/Window Adjacency Daylighting Counts, BUILDING STORY 4 THERMALZONE 1,1,0
Zone/Window Adjacency Daylighting Counts, BUILDING STORY 4 THERMALZONE 2,1,0
Zone/Window Adjacency Daylighting Counts, BUILDING STORY 4 THERMALZONE 3,1,0
Zone/Window Adjacency Daylighting Counts, BUILDING STORY 4 THERMALZONE 4,1,0
Zone/Window Adjacency Daylighting Counts, BUILDING STORY 4 THERMALZONE 5,1,0
Zone/Window Adjacency Daylighting Counts, BUILDING STORY 4 THERMALZONE 6,1,0
Zone/Window Adjacency Daylighting Counts, BUILDING STORY 4 THERMALZONE 7,1,0
! <Zone/Window Adjacency Daylighting Matrix>, Zone Name, Number of Adjacent Zones with Windows,Adjacent Zone Names - 1st 100 (max)
Zone/Window Adjacency Daylighting Matrix, BUILDING STORY 1 THERMALZONE 1,0
Zone/Window Adjacency Daylighting Matrix, BUILDING STORY 1 THERMALZONE 2,0
Zone/Window Adjacency Daylighting Matrix, BUILDING STORY 1 THERMALZONE 3,0
Zone/Window Adjacency Daylighting Matrix, BUILDING STORY 1 THERMALZONE 4,0
Zone/Window Adjacency Daylighting Matrix, BUILDING STORY 1 THERMALZONE 5,0
Zone/Window Adjacency Daylighting Matrix, BUILDING STORY 1 THERMALZONE 6,0
Zone/Window Adjacency Daylighting Matrix, BUILDING STORY 1 THERMALZONE 7,0
Zone/Window Adjacency Daylighting Matrix, BUILDING STORY 2 THERMALZONE 1,0
Zone/Window Adjacency Daylighting Matrix, BUILDING STORY 2 THERMALZONE 2,0
Zone/Window Adjacency Daylighting Matrix, BUILDING STORY 2 THERMALZONE 3,0
Zone/Window Adjacency Daylighting Matrix, BUILDING STORY 2 THERMALZONE 4,0
Zone/Window Adjacency Daylighting Matrix, BUILDING STORY 2 THERMALZONE 5,0
Zone/Window Adjacency Daylighting Matrix, BUILDING STORY 2 THERMALZONE 6,0
Zone/Window Adjacency Daylighting Matrix, BUILDING STORY 2 THERMALZONE 7,0
Zone/Window Adjacency Daylighting Matrix, BUILDING STORY 3 THERMALZONE 1,0
Zone/Window Adjacency Daylighting Matrix, BUILDING STORY 3 THERMALZONE 2,0
Zone/Window Adjacency Daylighting Matrix, BUILDING STORY 3 THERMALZONE 3,0
Zone/Window Adjacency Daylighting Matrix, BUILDING STORY 3 THERMALZONE 4,0
Zone/Window Adjacency Daylighting Matrix, BUILDING STORY 3 THERMALZONE 5,0
Zone/Window Adjacency Daylighting Matrix, BUILDING STORY 3 THERMALZONE 6,0
Zone/Window Adjacency Daylighting Matrix, BUILDING STORY 3 THERMALZONE 7,0
Zone/Window Adjacency Daylighting Matrix, BUILDING STORY 4 THERMALZONE 1,0
Zone/Window Adjacency Daylighting Matrix, BUILDING STORY 4 THERMALZONE 2,0
Zone/Window Adjacency Daylighting Matrix, BUILDING STORY 4 THERMALZONE 3,0
Zone/Window Adjacency Daylighting Matrix, BUILDING STORY 4 THERMALZONE 4,0
Zone/Window Adjacency Daylighting Matrix, BUILDING STORY 4 THERMALZONE 5,0
Zone/Window Adjacency Daylighting Matrix, BUILDING STORY 4 THERMALZONE 6,0
Zone/Window Adjacency Daylighting Matrix, BUILDING STORY 4 THERMALZONE 7,0
! <Water Heater Information>,Type,Name,Volume {m3},Maximum Capacity {W},Standard Rated Recovery Efficiency, Standard Rated Energy Factor
! <ZoneInfiltration Airflow Stats Nominal>,Name,Schedule Name,Zone Name, Zone Floor Area {m2}, # Zone Occupants,Design Volume Flow Rate {m3/s},Volume Flow Rate/Floor Area {m3/s-m2},Volume Flow Rate/Exterior Surface Area {m3/s-m2},ACH - Air Changes per Hour,Equation A - Constant Term Coefficient {},Equation B - Temperature Term Coefficient {1/C},Equation C - Velocity Term Coefficient {s/m}, Equation D - Velocity Squared Term Coefficient {s2/m2}
 ZoneInfiltration Airflow Stats Nominal, BUILDING STORY 1 THERMALZONE OFFICE WHOLEBUILDING - LG OFFICE A  - STORY GROUND INFILTRATION,ALWAYS ON DISCRETE,BUILDING STORY 1 THERMALZONE,15618.49,796.4,0.000,0.000,N/A,0.000,0.000,0.000,0.224,0.000
 ZoneInfiltration Airflow Stats Nominal, BUILDING STORY 1 THERMALZONE 1 OFFICE WHOLEBUILDING - LG OFFICE A  - STORY GROUND INFILTRATION,ALWAYS ON DISCRETE,BUILDING STORY 1 THERMALZONE 1,522.00,26.6,8.334E-002,1.597E-004,1.571E-004,0.160,0.000,0.000,0.224,0.000
 ZoneInfiltration Airflow Stats Nominal, BUILDING STORY 1 THERMALZONE 2 OFFICE WHOLEBUILDING - LG OFFICE A  - STORY GROUND INFILTRATION,ALWAYS ON DISCRETE,BUILDING STORY 1 THERMALZONE 2,175.32,8.9,3.423E-002,1.952E-004,1.571E-004,0.195,0.000,0.000,0.224,0.000
 ZoneInfiltration Airflow Stats Nominal, BUILDING STORY 1 THERMALZONE 3 OFFICE WHOLEBUILDING - LG OFFICE A  - STORY GROUND INFILTRATION,ALWAYS ON DISCRETE,BUILDING STORY 1 THERMALZONE 3,486.05,24.8,9.841E-002,2.025E-004,1.571E-004,0.202,0.000,0.000,0.224,0.000
 ZoneInfiltration Airflow Stats Nominal, BUILDING STORY 1 THERMALZONE 4 OFFICE WHOLEBUILDING - LG OFFICE A  - STORY GROUND INFILTRATION,ALWAYS ON DISCRETE,BUILDING STORY 1 THERMALZONE 4,141.27,7.2,2.827E-002,2.001E-004,1.571E-004,0.200,0.000,0.000,0.224,0.000
 ZoneInfiltration Airflow Stats Nominal, BUILDING STORY 1 THERMALZONE 5 OFFICE WHOLEBUILDING - LG OFFICE A  - STORY GROUND INFILTRATION,ALWAYS ON DISCRETE,BUILDING STORY 1 THERMALZONE 5,118.61,6.0,2.374E-002,2.001E-004,1.571E-004,0.200,0.000,0.000,0.224,0.000
 ZoneInfiltration Airflow Stats Nominal, BUILDING STORY 1 THERMALZONE 6 OFFICE WHOLEBUILDING - LG OFFICE A  - STORY GROUND INFILTRATION,ALWAYS ON DISCRETE,BUILDING STORY 1 THERMALZONE 6,147.85,7.5,3.125E-002,2.113E-004,1.571E-004,0.211,0.000,0.000,0.224,0.000
 ZoneInfiltration Airflow Stats Nominal, BUILDING STORY 1 THERMALZONE 7 OFFICE WHOLEBUILDING - LG OFFICE A  - STORY GROUND INFILTRATION,ALWAYS ON DISCRETE,BUILDING STORY 1 THERMALZONE 7,251.25,12.8,4.302E-002,1.712E-004,1.571E-004,0.171,0.000,0.000,0.224,0.000
 ZoneInfiltration Airflow Stats Nominal, BUILDING STORY 1 THERMALZONE OFFICE WHOLEBUILDING - LG OFFICE A END_A - STORY GROUND INFILTRATION,ALWAYS ON DISCRETE,BUILDING STORY 1 THERMALZONE,15618.49,796.4,0.000,0.000,N/A,0.000,0.000,0.000,0.224,0.000
 ZoneInfiltration Airflow Stats Nominal, BUILDING STORY 1 THERMALZONE 1 OFFICE WHOLEBUILDING - LG OFFICE A END_A - STORY GROUND INFILTRATION,ALWAYS ON DISCRETE,BUILDING STORY 1 THERMALZONE 1,522.00,26.6,5.122E-003,9.811E-006,9.652E-006,9.811E-003,0.000,0.000,0.224,0.000
 ZoneInfiltration Airflow Stats Nominal, BUILDING STORY 1 THERMALZONE 2 OFFICE WHOLEBUILDING - LG OFFICE A END_A - STORY GROUND INFILTRATION,ALWAYS ON DISCRETE,BUILDING STORY 1 THERMALZONE 2,175.32,8.9,2.103E-003,1.200E-005,9.652E-006,1.200E-002,0.000,0.000,0.224,0.000
 ZoneInfiltration Airflow Stats Nominal, BUILDING STORY 1 THERMALZONE 3 OFFICE WHOLEBUILDING - LG OFFICE A END_A - STORY GROUND INFILTRATION,ALWAYS ON DISCRETE,BUILDING STORY 1 THERMALZONE 3,486.05,24.8,6.048E-003,1.244E-005,9.652E-006,1.244E-002,0.000,0.000,0.224,0.000
 ZoneInfiltration Airflow Stats Nominal, BUILDING STORY 1 THERMALZONE 4 OFFICE WHOLEBUILDING - LG OFFICE A END_A - STORY GROUND INFILTRATION,ALWAYS ON DISCRETE,BUILDING STORY 1 THERMALZONE 4,141.27,7.2,1.737E-003,1.230E-005,9.652E-006,1.230E-002,0.000,0.000,0.224,0.000
 ZoneInfiltration Airflow Stats Nominal, BUILDING STORY 1 THERMALZONE 5 OFFICE WHOLEBUILDING - LG OFFICE A END_A - STORY GROUND INFILTRATION,ALWAYS ON DISCRETE,BUILDING STORY 1 THERMALZONE 5,118.61,6.0,1.459E-003,1.230E-005,9.652E-006,1.230E-002,0.000,0.000,0.224,0.000
 ZoneInfiltration Airflow Stats Nominal, BUILDING STORY 1 THERMALZONE 6 OFFICE WHOLEBUILDING - LG OFFICE A END_A - STORY GROUND INFILTRATION,ALWAYS ON DISCRETE,BUILDING STORY 1 THERMALZONE 6,147.85,7.5,1.920E-003,1.299E-005,9.652E-006,1.299E-002,0.000,0.000,0.224,0.000
 ZoneInfiltration Airflow Stats Nominal, BUILDING STORY 1 THERMALZONE 7 OFFICE WHOLEBUILDING - LG OFFICE A END_A - STORY GROUND INFILTRATION,ALWAYS ON DISCRETE,BUILDING STORY 1 THERMALZONE 7,251.25,12.8,2.644E-003,1.052E-005,9.652E-006,1.052E-002,0.000,0.000,0.224,0.000
 ZoneInfiltration Airflow Stats Nominal, BUILDING STORY 1 THERMALZONE OFFICE WHOLEBUILDING - LG OFFICE B END_A - STORY GROUND INFILTRATION,ALWAYS ON DISCRETE,BUILDING STORY 1 THERMALZONE,15618.49,796.4,0.000,0.000,N/A,0.000,0.000,0.000,0.224,0.000
 ZoneInfiltration Airflow Stats Nominal, BUILDING STORY 1 THERMALZONE 1 OFFICE WHOLEBUILDING - LG OFFICE B END_A - STORY GROUND INFILTRATION,ALWAYS ON DISCRETE,BUILDING STORY 1 THERMALZONE 1,522.00,26.6,5.532E-002,1.060E-004,1.043E-004,0.106,0.000,0.000,0.224,0.000
 ZoneInfiltration Airflow Stats Nominal, BUILDING STORY 1 THERMALZONE 2 OFFICE WHOLEBUILDING - LG OFFICE B END_A - STORY GROUND INFILTRATION,ALWAYS ON DISCRETE,BUILDING STORY 1 THERMALZONE 2,175.32,8.9,2.272E-002,1.296E-004,1.043E-004,0.130,0.000,0.000,0.224,0.000
 ZoneInfiltration Airflow Stats Nominal, BUILDING STORY 1 THERMALZONE 3 OFFICE WHOLEBUILDING - LG OFFICE B END_A - STORY GROUND INFILTRATION,ALWAYS ON DISCRETE,BUILDING STORY 1 THERMALZONE 3,486.05,24.8,6.533E-002,1.344E-004,1.043E-004,0.134,0.000,0.000,0.224,0.000
 ZoneInfiltration Airflow Stats Nominal, BUILDING STORY 1 THERMALZONE 4 OFFICE WHOLEBUILDING - LG OFFICE B END_A - STORY GROUND INFILTRATION,ALWAYS ON DISCRETE,BUILDING STORY 1 THERMALZONE 4,141.27,7.2,1.877E-002,1.328E-004,1.043E-004,0.133,0.000,0.000,0.224,0.000
 ZoneInfiltration Airflow Stats Nominal, BUILDING STORY 1 THERMALZONE 5 OFFICE WHOLEBUILDING - LG OFFICE B END_A - STORY GROUND INFILTRATION,ALWAYS ON DISCRETE,BUILDING STORY 1 THERMALZONE 5,118.61,6.0,1.576E-002,1.328E-004,1.043E-004,0.133,0.000,0.000,0.224,0.000
 ZoneInfiltration Airflow Stats Nominal, BUILDING STORY 1 THERMALZONE 6 OFFICE WHOLEBUILDING - LG OFFICE B END_A - STORY GROUND INFILTRATION,ALWAYS ON DISCRETE,BUILDING STORY 1 THERMALZONE 6,147.85,7.5,2.074E-002,1.403E-004,1.043E-004,0.140,0.000,0.000,0.224,0.000
 ZoneInfiltration Airflow Stats Nominal, BUILDING STORY 1 THERMALZONE 7 OFFICE WHOLEBUILDING - LG OFFICE B END_A - STORY GROUND INFILTRATION,ALWAYS ON DISCRETE,BUILDING STORY 1 THERMALZONE 7,251.25,12.8,2.856E-002,1.137E-004,1.043E-004,0.114,0.000,0.000,0.224,0.000
 ZoneInfiltration Airflow Stats Nominal, BUILDING STORY 1 THERMALZONE OFFICE WHOLEBUILDING - LG OFFICE C  - STORY GROUND INFILTRATION,ALWAYS ON DISCRETE,BUILDING STORY 1 THERMALZONE,15618.49,796.4,0.000,0.000,N/A,0.000,0.000,0.000,0.224,0.000
[...]
 Warmup Convergence Information,BUILDING STORY 2 THERMALZONE 1,SizingPeriod: BUFFALO NIAGARA INTL AP ANN CLG .4% CONDNS DB=>MWB 1,0.1079415345,0.2495723505,Pass,Pass,0.1025709138,0.1626164321,Pass,Pass
 Warmup Convergence Information,BUILDING STORY 2 THERMALZONE 2,SizingPeriod: BUFFALO NIAGARA INTL AP ANN CLG .4% CONDNS DB=>MWB 1,0.1046533533,0.2584803013,Pass,Pass,0.1129304864,0.1948179804,Pass,Pass
 Warmup Convergence Information,BUILDING STORY 2 THERMALZONE 3,SizingPeriod: BUFFALO NIAGARA INTL AP ANN CLG .4% CONDNS DB=>MWB 1,0.1234474326,0.3312058283,Pass,Pass,0.1268525736,0.2273041150,Pass,Pass
 Warmup Convergence Information,BUILDING STORY 2 THERMALZONE 4,SizingPeriod: BUFFALO NIAGARA INTL AP ANN CLG .4% CONDNS DB=>MWB 1,9.8669524743E-002,0.2524654591,Pass,Pass,0.1027168725,0.2110761999,Pass,Pass
 Warmup Convergence Information,BUILDING STORY 2 THERMALZONE 5,SizingPeriod: BUFFALO NIAGARA INTL AP ANN CLG .4% CONDNS DB=>MWB 1,9.7046384055E-002,0.2736203600,Pass,Pass,0.1143621481,0.2377766688,Pass,Pass
 Warmup Convergence Information,BUILDING STORY 2 THERMALZONE 6,SizingPeriod: BUFFALO NIAGARA INTL AP ANN CLG .4% CONDNS DB=>MWB 1,0.1042471255,0.2455222889,Pass,Pass,0.1023690699,0.2008225424,Pass,Pass
 Warmup Convergence Information,BUILDING STORY 2 THERMALZONE 7,SizingPeriod: BUFFALO NIAGARA INTL AP ANN CLG .4% CONDNS DB=>MWB 1,0.1235808911,0.2768850969,Pass,Pass,0.1035126980,0.1940701580,Pass,Pass
 Warmup Convergence Information,BUILDING STORY 3 THERMALZONE,SizingPeriod: BUFFALO NIAGARA INTL AP ANN CLG .4% CONDNS DB=>MWB 1,0.3325810442,0.8944927050,Pass,Pass,5.0882337229E-002,0.1289017839,Pass,Pass
 Warmup Convergence Information,BUILDING STORY 3 THERMALZONE 1,SizingPeriod: BUFFALO NIAGARA INTL AP ANN CLG .4% CONDNS DB=>MWB 1,0.3323792970,0.8301219810,Pass,Pass,9.9653228227E-002,0.2135579335,Pass,Pass
 Warmup Convergence Information,BUILDING STORY 3 THERMALZONE 2,SizingPeriod: BUFFALO NIAGARA INTL AP ANN CLG .4% CONDNS DB=>MWB 1,0.3325675293,0.8352907772,Pass,Pass,0.1074018925,0.2498256628,Pass,Pass
 Warmup Convergence Information,BUILDING STORY 3 THERMALZONE 3,SizingPeriod: BUFFALO NIAGARA INTL AP ANN CLG .4% CONDNS DB=>MWB 1,0.3308764203,0.7946016213,Pass,Pass,0.1101758647,0.2041912760,Pass,Pass
 Warmup Convergence Information,BUILDING STORY 3 THERMALZONE 4,SizingPeriod: BUFFALO NIAGARA INTL AP ANN CLG .4% CONDNS DB=>MWB 1,0.3325565989,0.8693993818,Pass,Pass,0.1141356809,0.2972239631,Pass,Pass
 Warmup Convergence Information,BUILDING STORY 3 THERMALZONE 5,SizingPeriod: BUFFALO NIAGARA INTL AP ANN CLG .4% CONDNS DB=>MWB 1,0.3324900585,0.8781302708,Pass,Pass,0.1148787825,0.3160439744,Pass,Pass
 Warmup Convergence Information,BUILDING STORY 3 THERMALZONE 6,SizingPeriod: BUFFALO NIAGARA INTL AP ANN CLG .4% CONDNS DB=>MWB 1,0.3325655721,0.8641601426,Pass,Pass,0.1150898313,0.3046023528,Pass,Pass
 Warmup Convergence Information,BUILDING STORY 3 THERMALZONE 7,SizingPeriod: BUFFALO NIAGARA INTL AP ANN CLG .4% CONDNS DB=>MWB 1,0.3324113683,0.8792050723,Pass,Pass,0.1050721913,0.2615576129,Pass,Pass
 Warmup Convergence Information,BUILDING STORY 4 THERMALZONE,SizingPeriod: BUFFALO NIAGARA INTL AP ANN CLG .4% CONDNS DB=>MWB 1,0.4663264843,1.2334158577,Pass,Pass,9.9454116852E-002,0.3096451333,Pass,Pass
 Warmup Convergence Information,BUILDING STORY 4 THERMALZONE 1,SizingPeriod: BUFFALO NIAGARA INTL AP ANN CLG .4% CONDNS DB=>MWB 1,0.3201396710,0.7974471502,Pass,Pass,9.7572646448E-002,0.2164158150,Pass,Pass
 Warmup Convergence Information,BUILDING STORY 4 THERMALZONE 2,SizingPeriod: BUFFALO NIAGARA INTL AP ANN CLG .4% CONDNS DB=>MWB 1,0.3183099235,0.8073704129,Pass,Pass,0.1026225860,0.2395835932,Pass,Pass
 Warmup Convergence Information,BUILDING STORY 4 THERMALZONE 3,SizingPeriod: BUFFALO NIAGARA INTL AP ANN CLG .4% CONDNS DB=>MWB 1,0.3322542407,0.8106563399,Pass,Pass,0.1114070286,0.2303678727,Pass,Pass
 Warmup Convergence Information,BUILDING STORY 4 THERMALZONE 4,SizingPeriod: BUFFALO NIAGARA INTL AP ANN CLG .4% CONDNS DB=>MWB 1,0.3603480347,0.8885987108,Pass,Pass,0.1080384658,0.3074584523,Pass,Pass
 Warmup Convergence Information,BUILDING STORY 4 THERMALZONE 5,SizingPeriod: BUFFALO NIAGARA INTL AP ANN CLG .4% CONDNS DB=>MWB 1,0.3465647142,0.8639438777,Pass,Pass,0.1093925304,0.2822722117,Pass,Pass
 Warmup Convergence Information,BUILDING STORY 4 THERMALZONE 6,SizingPeriod: BUFFALO NIAGARA INTL AP ANN CLG .4% CONDNS DB=>MWB 1,0.3563828008,0.8819705206,Pass,Pass,0.1093021970,0.3034851458,Pass,Pass
 Warmup Convergence Information,BUILDING STORY 4 THERMALZONE 7,SizingPeriod: BUFFALO NIAGARA INTL AP ANN CLG .4% CONDNS DB=>MWB 1,0.3122404126,0.7806580597,Pass,Pass,9.6633083752E-002,0.2167754283,Pass,Pass
Environment,BUFFALO NIAGARA INTL AP ANN CLG .4% CONDNS WB=>MDB 1,SizingPeriod:DesignDay,07/21,07/21,SummerDesignDay,1,N/A,N/A,N/A,N/A,N/A,N/A,Clark and Allen
Environment:Daylight Saving,No,SizingPeriod:DesignDay
Environment:Design Day Data,27.80,9.30,DefaultMultipliers,Wetbulb,23.80,{C},98769,240,5.7,0.00,No,No
Environment:Design Day Misc,202,1084.4,0.2082,0.1365,1.0,-6.23,20.6,ASHRAETau
Environment:WarmupDays,  4
 Warmup Convergence Information,BUILDING STORY 1 THERMALZONE,SizingPeriod: BUFFALO NIAGARA INTL AP ANN CLG .4% CONDNS WB=>MDB 1,0.2251311679,0.4944185784,Pass,Pass,0.1132256627,0.3101754748,Pass,Pass
 Warmup Convergence Information,BUILDING STORY 1 THERMALZONE 1,SizingPeriod: BUFFALO NIAGARA INTL AP ANN CLG .4% CONDNS WB=>MDB 1,0.1146172655,0.2484524501,Pass,Pass,9.8297886046E-002,0.1387356429,Pass,Pass
 Warmup Convergence Information,BUILDING STORY 1 THERMALZONE 2,SizingPeriod: BUFFALO NIAGARA INTL AP ANN CLG .4% CONDNS WB=>MDB 1,0.1005249903,0.2567210120,Pass,Pass,0.1067839751,0.1622395886,Pass,Pass
 Warmup Convergence Information,BUILDING STORY 1 THERMALZONE 3,SizingPeriod: BUFFALO NIAGARA INTL AP ANN CLG .4% CONDNS WB=>MDB 1,0.1005173353,0.2214743994,Pass,Pass,0.1231079015,0.1567687922,Pass,Pass
 Warmup Convergence Information,BUILDING STORY 1 THERMALZONE 4,SizingPeriod: BUFFALO NIAGARA INTL AP ANN CLG .4% CONDNS WB=>MDB 1,0.1177955010,0.3018843963,Pass,Pass,0.1212240371,0.2575174423,Pass,Pass
 Warmup Convergence Information,BUILDING STORY 1 THERMALZONE 5,SizingPeriod: BUFFALO NIAGARA INTL AP ANN CLG .4% CONDNS WB=>MDB 1,0.1006126261,0.2806347822,Pass,Pass,0.1205985136,0.2141829052,Pass,Pass
 Warmup Convergence Information,BUILDING STORY 1 THERMALZONE 6,SizingPeriod: BUFFALO NIAGARA INTL AP ANN CLG .4% CONDNS WB=>MDB 1,0.1145925872,0.2884443330,Pass,Pass,0.1202097284,0.2443236827,Pass,Pass
 Warmup Convergence Information,BUILDING STORY 1 THERMALZONE 7,SizingPeriod: BUFFALO NIAGARA INTL AP ANN CLG .4% CONDNS WB=>MDB 1,0.1142692697,0.2464104420,Pass,Pass,9.8026514850E-002,0.1369498150,Pass,Pass
 Warmup Convergence Information,BUILDING STORY 2 THERMALZONE,SizingPeriod: BUFFALO NIAGARA INTL AP ANN CLG .4% CONDNS WB=>MDB 1,0.2241923932,0.3705081117,Pass,Pass,0.1179470392,0.3195564575,Pass,Pass
 Warmup Convergence Information,BUILDING STORY 2 THERMALZONE 1,SizingPeriod: BUFFALO NIAGARA INTL AP ANN CLG .4% CONDNS WB=>MDB 1,0.1200517098,0.2290501650,Pass,Pass,9.8246849600E-002,0.1386258265,Pass,Pass
 Warmup Convergence Information,BUILDING STORY 2 THERMALZONE 2,SizingPeriod: BUFFALO NIAGARA INTL AP ANN CLG .4% CONDNS WB=>MDB 1,8.7438051583E-002,0.1804049422,Pass,Pass,0.1059447012,0.1572269235,Pass,Pass
 Warmup Convergence Information,BUILDING STORY 2 THERMALZONE 3,SizingPeriod: BUFFALO NIAGARA INTL AP ANN CLG .4% CONDNS WB=>MDB 1,0.1233648466,0.2803359603,Pass,Pass,0.1231195780,0.2014415543,Pass,Pass
 Warmup Convergence Information,BUILDING STORY 2 THERMALZONE 4,SizingPeriod: BUFFALO NIAGARA INTL AP ANN CLG .4% CONDNS WB=>MDB 1,7.7001605225E-002,0.1611109441,Pass,Pass,9.4215378051E-002,0.1644003886,Pass,Pass
 Warmup Convergence Information,BUILDING STORY 2 THERMALZONE 5,SizingPeriod: BUFFALO NIAGARA INTL AP ANN CLG .4% CONDNS WB=>MDB 1,8.9138045373E-002,0.2024493919,Pass,Pass,0.1056326321,0.1924315943,Pass,Pass
 Warmup Convergence Information,BUILDING STORY 2 THERMALZONE 6,SizingPeriod: BUFFALO NIAGARA INTL AP ANN CLG .4% CONDNS WB=>MDB 1,7.6138508186E-002,0.1420971160,Pass,Pass,9.4564729993E-002,0.1550070839,Pass,Pass
 Warmup Convergence Information,BUILDING STORY 2 THERMALZONE 7,SizingPeriod: BUFFALO NIAGARA INTL AP ANN CLG .4% CONDNS WB=>MDB 1,0.1129478792,0.2420791899,Pass,Pass,9.7893814468E-002,0.1647411997,Pass,Pass
 Warmup Convergence Information,BUILDING STORY 3 THERMALZONE,SizingPeriod: BUFFALO NIAGARA INTL AP ANN CLG .4% CONDNS WB=>MDB 1,0.3325866695,0.8944887533,Pass,Pass,5.0882151593E-002,0.1289016631,Pass,Pass
 Warmup Convergence Information,BUILDING STORY 3 THERMALZONE 1,SizingPeriod: BUFFALO NIAGARA INTL AP ANN CLG .4% CONDNS WB=>MDB 1,0.3320156501,0.8077199239,Pass,Pass,9.6637117016E-002,0.2051990989,Pass,Pass
 Warmup Convergence Information,BUILDING STORY 3 THERMALZONE 2,SizingPeriod: BUFFALO NIAGARA INTL AP ANN CLG .4% CONDNS WB=>MDB 1,0.3326081094,0.8105458332,Pass,Pass,0.1034292353,0.2378403189,Pass,Pass
 Warmup Convergence Information,BUILDING STORY 3 THERMALZONE 3,SizingPeriod: BUFFALO NIAGARA INTL AP ANN CLG .4% CONDNS WB=>MDB 1,0.3084098373,0.7497004081,Pass,Pass,0.1082725441,0.1925170815,Pass,Pass
 Warmup Convergence Information,BUILDING STORY 3 THERMALZONE 4,SizingPeriod: BUFFALO NIAGARA INTL AP ANN CLG .4% CONDNS WB=>MDB 1,0.3326656490,0.8426537274,Pass,Pass,0.1118456177,0.2929280709,Pass,Pass
 Warmup Convergence Information,BUILDING STORY 3 THERMALZONE 5,SizingPeriod: BUFFALO NIAGARA INTL AP ANN CLG .4% CONDNS WB=>MDB 1,0.3325977851,0.8524878427,Pass,Pass,0.1141477879,0.3136669855,Pass,Pass
 Warmup Convergence Information,BUILDING STORY 3 THERMALZONE 6,SizingPeriod: BUFFALO NIAGARA INTL AP ANN CLG .4% CONDNS WB=>MDB 1,0.3326975157,0.8349090460,Pass,Pass,0.1113760915,0.2934175309,Pass,Pass
 Warmup Convergence Information,BUILDING STORY 3 THERMALZONE 7,SizingPeriod: BUFFALO NIAGARA INTL AP ANN CLG .4% CONDNS WB=>MDB 1,0.3438800951,0.8620603970,Pass,Pass,0.1022643834,0.2552471451,Pass,Pass
 Warmup Convergence Information,BUILDING STORY 4 THERMALZONE,SizingPeriod: BUFFALO NIAGARA INTL AP ANN CLG .4% CONDNS WB=>MDB 1,0.4629203041,1.2242263330,Pass,Pass,9.8934530659E-002,0.3075500755,Pass,Pass
 Warmup Convergence Information,BUILDING STORY 4 THERMALZONE 1,SizingPeriod: BUFFALO NIAGARA INTL AP ANN CLG .4% CONDNS WB=>MDB 1,0.3048351175,0.7630755878,Pass,Pass,9.5494094035E-002,0.2066612415,Pass,Pass
 Warmup Convergence Information,BUILDING STORY 4 THERMALZONE 2,SizingPeriod: BUFFALO NIAGARA INTL AP ANN CLG .4% CONDNS WB=>MDB 1,0.2969202424,0.7649213963,Pass,Pass,0.1001789872,0.2271021575,Pass,Pass
 Warmup Convergence Information,BUILDING STORY 4 THERMALZONE 3,SizingPeriod: BUFFALO NIAGARA INTL AP ANN CLG .4% CONDNS WB=>MDB 1,0.3167763601,0.7747018161,Pass,Pass,0.1092538110,0.2186267328,Pass,Pass
 Warmup Convergence Information,BUILDING STORY 4 THERMALZONE 4,SizingPeriod: BUFFALO NIAGARA INTL AP ANN CLG .4% CONDNS WB=>MDB 1,0.3381279359,0.8408753075,Pass,Pass,0.1047824404,0.2929775603,Pass,Pass
 Warmup Convergence Information,BUILDING STORY 4 THERMALZONE 5,SizingPeriod: BUFFALO NIAGARA INTL AP ANN CLG .4% CONDNS WB=>MDB 1,0.3243352530,0.8276311067,Pass,Pass,0.1064382815,0.2670431828,Pass,Pass
 Warmup Convergence Information,BUILDING STORY 4 THERMALZONE 6,SizingPeriod: BUFFALO NIAGARA INTL AP ANN CLG .4% CONDNS WB=>MDB 1,0.3335971284,0.8324435294,Pass,Pass,0.1058580425,0.2887141457,Pass,Pass
 Warmup Convergence Information,BUILDING STORY 4 THERMALZONE 7,SizingPeriod: BUFFALO NIAGARA INTL AP ANN CLG .4% CONDNS WB=>MDB 1,0.2959026080,0.7441644195,Pass,Pass,9.4382800501E-002,0.2065909497,Pass,Pass
Environment,BUFFALO NIAGARA INTL AP ANN HTG 99.6% CONDNS DB 1,SizingPeriod:DesignDay,01/21,01/21,WinterDesignDay,1,N/A,N/A,N/A,N/A,N/A,N/A,Clark and Allen
Environment:Daylight Saving,No,SizingPeriod:DesignDay
Environment:Design Day Data,-16.30,0.00,DefaultMultipliers,Wetbulb,-16.30,{C},98769,270,5.1,0.00,No,No
Environment:Design Day Misc, 21,1229.0,0.1415,5.7310E-002,1.0,-11.15,-20.1,ASHRAEClearSky
Environment:WarmupDays, 23
 Warmup Convergence Information,BUILDING STORY 1 THERMALZONE,SizingPeriod: BUFFALO NIAGARA INTL AP ANN HTG 99.6% CONDNS DB 1,4.4199716201E-002,8.4276081736E-002,Pass,Pass,4.4723467676E-002,0.1060354284,Pass,Pass
 Warmup Convergence Information,BUILDING STORY 1 THERMALZONE 1,SizingPeriod: BUFFALO NIAGARA INTL AP ANN HTG 99.6% CONDNS DB 1,0.4518974886,1.0476536912,Pass,Pass,0.5403391608,1.3543961335,Pass,Pass
 Warmup Convergence Information,BUILDING STORY 1 THERMALZONE 2,SizingPeriod: BUFFALO NIAGARA INTL AP ANN HTG 99.6% CONDNS DB 1,0.4519431615,1.0384689061,Pass,Pass,3.5832878579,16.3970201729,Pass,Pass
 Warmup Convergence Information,BUILDING STORY 1 THERMALZONE 3,SizingPeriod: BUFFALO NIAGARA INTL AP ANN HTG 99.6% CONDNS DB 1,0.4527046622,1.1138477661,Pass,Pass,1.4935069424,6.3422231671,Pass,Pass
 Warmup Convergence Information,BUILDING STORY 1 THERMALZONE 4,SizingPeriod: BUFFALO NIAGARA INTL AP ANN HTG 99.6% CONDNS DB 1,0.3737254533,0.8939829334,Pass,Pass,0.3793226335,1.5056470518,Pass,Pass
 Warmup Convergence Information,BUILDING STORY 1 THERMALZONE 5,SizingPeriod: BUFFALO NIAGARA INTL AP ANN HTG 99.6% CONDNS DB 1,0.4514679997,1.0034596236,Pass,Pass,0.9248418761,3.7311340243,Pass,Pass
 Warmup Convergence Information,BUILDING STORY 1 THERMALZONE 6,SizingPeriod: BUFFALO NIAGARA INTL AP ANN HTG 99.6% CONDNS DB 1,0.3564852628,0.8647180566,Pass,Pass,0.3059261755,1.0717673705,Pass,Pass
 Warmup Convergence Information,BUILDING STORY 1 THERMALZONE 7,SizingPeriod: BUFFALO NIAGARA INTL AP ANN HTG 99.6% CONDNS DB 1,0.4525838152,1.0604230269,Pass,Pass,0.5567829292,1.7177422957,Pass,Pass
 Warmup Convergence Information,BUILDING STORY 2 THERMALZONE,SizingPeriod: BUFFALO NIAGARA INTL AP ANN HTG 99.6% CONDNS DB 1,9.6987909288E-002,0.1819686231,Pass,Pass,9.0931892269E-002,0.1705477242,Pass,Pass
 Warmup Convergence Information,BUILDING STORY 2 THERMALZONE 1,SizingPeriod: BUFFALO NIAGARA INTL AP ANN HTG 99.6% CONDNS DB 1,0.4517212497,1.0501446442,Pass,Pass,0.4832458936,1.8825706354,Pass,Pass
 Warmup Convergence Information,BUILDING STORY 2 THERMALZONE 2,SizingPeriod: BUFFALO NIAGARA INTL AP ANN HTG 99.6% CONDNS DB 1,0.4019286674,0.9568355564,Pass,Pass,0.2192525259,0.6954637851,Pass,Pass
 Warmup Convergence Information,BUILDING STORY 2 THERMALZONE 3,SizingPeriod: BUFFALO NIAGARA INTL AP ANN HTG 99.6% CONDNS DB 1,0.4526438496,1.0995180025,Pass,Pass,0.2919514366,0.9312314947,Pass,Pass
 Warmup Convergence Information,BUILDING STORY 2 THERMALZONE 4,SizingPeriod: BUFFALO NIAGARA INTL AP ANN HTG 99.6% CONDNS DB 1,0.3203353508,0.7902491614,Pass,Pass,0.1426769184,0.4278845373,Pass,Pass
 Warmup Convergence Information,BUILDING STORY 2 THERMALZONE 5,SizingPeriod: BUFFALO NIAGARA INTL AP ANN HTG 99.6% CONDNS DB 1,0.3232493486,0.7951137200,Pass,Pass,0.1479731490,0.4462006084,Pass,Pass
 Warmup Convergence Information,BUILDING STORY 2 THERMALZONE 6,SizingPeriod: BUFFALO NIAGARA INTL AP ANN HTG 99.6% CONDNS DB 1,0.3086285001,0.7704638707,Pass,Pass,0.1223663295,0.3594671947,Pass,Pass
 Warmup Convergence Information,BUILDING STORY 2 THERMALZONE 7,SizingPeriod: BUFFALO NIAGARA INTL AP ANN HTG 99.6% CONDNS DB 1,0.4516833708,1.0681069432,Pass,Pass,0.4506189399,1.7421527123,Pass,Pass
 Warmup Convergence Information,BUILDING STORY 3 THERMALZONE,SizingPeriod: BUFFALO NIAGARA INTL AP ANN HTG 99.6% CONDNS DB 1,1.5048603995E-005,9.9774698117E-006,Pass,Pass,8.2555128682E-002,0.2355787834,Pass,Pass
 Warmup Convergence Information,BUILDING STORY 3 THERMALZONE 1,SizingPeriod: BUFFALO NIAGARA INTL AP ANN HTG 99.6% CONDNS DB 1,1.6043322595E-004,4.9172627640E-004,Pass,Pass,1.1613375955E-005,3.6081472230E-005,Pass,Pass
 Warmup Convergence Information,BUILDING STORY 3 THERMALZONE 2,SizingPeriod: BUFFALO NIAGARA INTL AP ANN HTG 99.6% CONDNS DB 1,5.5211459171E-005,1.2323824260E-004,Pass,Pass,2.6547351149E-004,8.5979342490E-004,Pass,Pass
 Warmup Convergence Information,BUILDING STORY 3 THERMALZONE 3,SizingPeriod: BUFFALO NIAGARA INTL AP ANN HTG 99.6% CONDNS DB 1,6.1292025504E-005,1.3532112106E-004,Pass,Pass,2.6600732556E-004,8.5987752540E-004,Pass,Pass
 Warmup Convergence Information,BUILDING STORY 3 THERMALZONE 4,SizingPeriod: BUFFALO NIAGARA INTL AP ANN HTG 99.6% CONDNS DB 1,5.2383598412E-005,1.1755453296E-004,Pass,Pass,2.6466867757E-004,8.5784458332E-004,Pass,Pass
 Warmup Convergence Information,BUILDING STORY 3 THERMALZONE 5,SizingPeriod: BUFFALO NIAGARA INTL AP ANN HTG 99.6% CONDNS DB 1,4.2510789043E-005,9.6283370427E-005,Pass,Pass,1.3676416106E-004,6.2100595480E-004,Pass,Pass
 Warmup Convergence Information,BUILDING STORY 3 THERMALZONE 6,SizingPeriod: BUFFALO NIAGARA INTL AP ANN HTG 99.6% CONDNS DB 1,6.4581062209E-005,1.4237546721E-004,Pass,Pass,2.6596042312E-004,8.5882613625E-004,Pass,Pass
 Warmup Convergence Information,BUILDING STORY 3 THERMALZONE 7,SizingPeriod: BUFFALO NIAGARA INTL AP ANN HTG 99.6% CONDNS DB 1,5.1881326187E-005,1.1650784438E-004,Pass,Pass,2.6656440460E-004,8.6322582041E-004,Pass,Pass
 Warmup Convergence Information,BUILDING STORY 4 THERMALZONE,SizingPeriod: BUFFALO NIAGARA INTL AP ANN HTG 99.6% CONDNS DB 1,3.8015455142E-003,3.0403271729E-003,Pass,Pass,4.8398193763E-003,4.6287126738E-003,Pass,Pass
 Warmup Convergence Information,BUILDING STORY 4 THERMALZONE 1,SizingPeriod: BUFFALO NIAGARA INTL AP ANN HTG 99.6% CONDNS DB 1,1.1278192090E-005,2.2509611306E-005,Pass,Pass,3.0526661717E-006,6.1440616813E-006,Pass,Pass
 Warmup Convergence Information,BUILDING STORY 4 THERMALZONE 2,SizingPeriod: BUFFALO NIAGARA INTL AP ANN HTG 99.6% CONDNS DB 1,8.1268156936E-005,1.6184857914E-004,Pass,Pass,2.0513901528E-005,4.1163933095E-005,Pass,Pass
 Warmup Convergence Information,BUILDING STORY 4 THERMALZONE 3,SizingPeriod: BUFFALO NIAGARA INTL AP ANN HTG 99.6% CONDNS DB 1,8.4610504980E-005,1.6864913672E-004,Pass,Pass,2.0893632377E-005,4.1962828944E-005,Pass,Pass
 Warmup Convergence Information,BUILDING STORY 4 THERMALZONE 4,SizingPeriod: BUFFALO NIAGARA INTL AP ANN HTG 99.6% CONDNS DB 1,8.1978398757E-005,1.6364244791E-004,Pass,Pass,2.0772990375E-005,4.1741155487E-005,Pass,Pass
 Warmup Convergence Information,BUILDING STORY 4 THERMALZONE 5,SizingPeriod: BUFFALO NIAGARA INTL AP ANN HTG 99.6% CONDNS DB 1,7.8974190975E-005,1.5770569466E-004,Pass,Pass,2.0414060498E-005,4.1021689967E-005,Pass,Pass
 Warmup Convergence Information,BUILDING STORY 4 THERMALZONE 6,SizingPeriod: BUFFALO NIAGARA INTL AP ANN HTG 99.6% CONDNS DB 1,8.5376266506E-005,1.7048405864E-004,Pass,Pass,2.0908975640E-005,4.2051238028E-005,Pass,Pass
 Warmup Convergence Information,BUILDING STORY 4 THERMALZONE 7,SizingPeriod: BUFFALO NIAGARA INTL AP ANN HTG 99.6% CONDNS DB 1,3.5195703021E-003,2.7980441331E-003,Pass,Pass,1.2026178429E-003,1.1329583422E-003,Pass,Pass
Environment,BUFFALO NIAGARA INTL AP ANN CLG .4% CONDNS DB=>MWB 1 HVAC Sizing Pass 1,SizingPeriod:DesignDay,07/21,07/21,SummerDesignDay,1,N/A,N/A,N/A,N/A,N/A,N/A,Clark and Allen
Environment:Daylight Saving,No,SizingPeriod:DesignDay
Environment,BUFFALO NIAGARA INTL AP ANN CLG .4% CONDNS WB=>MDB 1 HVAC Sizing Pass 1,SizingPeriod:DesignDay,07/21,07/21,SummerDesignDay,1,N/A,N/A,N/A,N/A,N/A,N/A,Clark and Allen
Environment:Daylight Saving,No,SizingPeriod:DesignDay
Environment,BUFFALO NIAGARA INTL AP ANN HTG 99.6% CONDNS DB 1 HVAC Sizing Pass 1,SizingPeriod:DesignDay,01/21,01/21,WinterDesignDay,1,N/A,N/A,N/A,N/A,N/A,N/A,Clark and Allen
Environment:Daylight Saving,No,SizingPeriod:DesignDay
! <Program Control Information:Threads/Parallel Sims>, Threading Supported,Maximum Number of Threads, Env Set Threads (OMP_NUM_THREADS), EP Env Set Threads (EP_OMP_NUM_THREADS), IDF Set Threads, Number of Threads Used (Interior Radiant Exchange), Number Nominal Surfaces, Number Parallel Sims
Program Control:Threads/Parallel Sims, No,1, N/A, N/A, N/A, N/A, N/A, N/A
End of Data
