Program Version,EnergyPlus, Version 9.4.0-998c4b761e, YMD=2021.04.17 02:44
! This file shows details about the branches, nodes, and other
! elements of the flow connections.
! This file is intended for use in "debugging" potential problems
! that may also be detected by the program, but may be more easily
! identified by "eye".
! This file is also intended to support software which draws a
! schematic diagram of the HVAC system.
! ===============================================================
! #Nodes,<Number of Unique Nodes>
 #Nodes,386
! <Node>,<NodeNumber>,<Node Name>,<Node Fluid Type>,<# Times Node Referenced After Definition>
 Node,1,BUILDING STORY 1 THERMALZONE VAV TERMINAL OUTLET AIR NODE,Air,4
 Node,2,BUILDING STORY 1 THERMALZONE RETURN AIR NODE,Air,2
 Node,3,BUILDING STORY 1 THERMALZONE 1 VAV TERMINAL OUTLET AIR NODE,Air,4
 Node,4,BUILDING STORY 1 THERMALZONE 1 RETURN AIR NODE,Air,2
 Node,5,BUILDING STORY 1 THERMALZONE 2 VAV TERMINAL OUTLET AIR NODE,Air,4
 Node,6,BUILDING STORY 1 THERMALZONE 2 RETURN AIR NODE,Air,2
 Node,7,BUILDING STORY 1 THERMALZONE 3 VAV TERMINAL OUTLET AIR NODE,Air,4
 Node,8,BUILDING STORY 1 THERMALZONE 3 RETURN AIR NODE,Air,2
 Node,9,BUILDING STORY 1 THERMALZONE 4 VAV TERMINAL OUTLET AIR NODE,Air,4
 Node,10,BUILDING STORY 1 THERMALZONE 4 RETURN AIR NODE,Air,2
 Node,11,BUILDING STORY 1 THERMALZONE 5 VAV TERMINAL OUTLET AIR NODE,Air,4
 Node,12,BUILDING STORY 1 THERMALZONE 5 RETURN AIR NODE,Air,2
 Node,13,BUILDING STORY 1 THERMALZONE 6 VAV TERMINAL OUTLET AIR NODE,Air,4
 Node,14,BUILDING STORY 1 THERMALZONE 6 RETURN AIR NODE,Air,2
 Node,15,BUILDING STORY 1 THERMALZONE 7 VAV TERMINAL OUTLET AIR NODE,Air,4
 Node,16,BUILDING STORY 1 THERMALZONE 7 RETURN AIR NODE,Air,2
 Node,17,BUILDING STORY 2 THERMALZONE VAV TERMINAL OUTLET AIR NODE,Air,4
 Node,18,BUILDING STORY 2 THERMALZONE RETURN AIR NODE,Air,2
 Node,19,BUILDING STORY 2 THERMALZONE 1 VAV TERMINAL OUTLET AIR NODE,Air,4
 Node,20,BUILDING STORY 2 THERMALZONE 1 RETURN AIR NODE,Air,2
 Node,21,BUILDING STORY 2 THERMALZONE 2 VAV TERMINAL OUTLET AIR NODE,Air,4
 Node,22,BUILDING STORY 2 THERMALZONE 2 RETURN AIR NODE,Air,2
 Node,23,BUILDING STORY 2 THERMALZONE 3 VAV TERMINAL OUTLET AIR NODE,Air,4
 Node,24,BUILDING STORY 2 THERMALZONE 3 RETURN AIR NODE,Air,2
 Node,25,BUILDING STORY 2 THERMALZONE 4 VAV TERMINAL OUTLET AIR NODE,Air,4
 Node,26,BUILDING STORY 2 THERMALZONE 4 RETURN AIR NODE,Air,2
 Node,27,BUILDING STORY 2 THERMALZONE 5 VAV TERMINAL OUTLET AIR NODE,Air,4
 Node,28,BUILDING STORY 2 THERMALZONE 5 RETURN AIR NODE,Air,2
 Node,29,BUILDING STORY 2 THERMALZONE 6 VAV TERMINAL OUTLET AIR NODE,Air,4
 Node,30,BUILDING STORY 2 THERMALZONE 6 RETURN AIR NODE,Air,2
 Node,31,BUILDING STORY 2 THERMALZONE 7 VAV TERMINAL OUTLET AIR NODE,Air,4
 Node,32,BUILDING STORY 2 THERMALZONE 7 RETURN AIR NODE,Air,2
 Node,33,BUILDING STORY 3 THERMALZONE VAV TERMINAL OUTLET AIR NODE,Air,4
 Node,34,BUILDING STORY 3 THERMALZONE RETURN AIR NODE,Air,2
 Node,35,BUILDING STORY 3 THERMALZONE 1 VAV TERMINAL OUTLET AIR NODE,Air,4
 Node,36,BUILDING STORY 3 THERMALZONE 1 RETURN AIR NODE,Air,2
 Node,37,BUILDING STORY 3 THERMALZONE 2 VAV TERMINAL OUTLET AIR NODE,Air,4
 Node,38,BUILDING STORY 3 THERMALZONE 2 RETURN AIR NODE,Air,2
 Node,39,BUILDING STORY 3 THERMALZONE 3 VAV TERMINAL OUTLET AIR NODE,Air,4
 Node,40,BUILDING STORY 3 THERMALZONE 3 RETURN AIR NODE,Air,2
 Node,41,BUILDING STORY 3 THERMALZONE 4 VAV TERMINAL OUTLET AIR NODE,Air,4
 Node,42,BUILDING STORY 3 THERMALZONE 4 RETURN AIR NODE,Air,2
 Node,43,BUILDING STORY 3 THERMALZONE 5 VAV TERMINAL OUTLET AIR NODE,Air,4
 Node,44,BUILDING STORY 3 THERMALZONE 5 RETURN AIR NODE,Air,2
 Node,45,BUILDING STORY 3 THERMALZONE 6 VAV TERMINAL OUTLET AIR NODE,Air,4
 Node,46,BUILDING STORY 3 THERMALZONE 6 RETURN AIR NODE,Air,2
 Node,47,BUILDING STORY 3 THERMALZONE 7 VAV TERMINAL OUTLET AIR NODE,Air,4
 Node,48,BUILDING STORY 3 THERMALZONE 7 RETURN AIR NODE,Air,2
 Node,49,BUILDING STORY 4 THERMALZONE VAV TERMINAL OUTLET AIR NODE,Air,4
 Node,50,BUILDING STORY 4 THERMALZONE RETURN AIR NODE,Air,2
 Node,51,BUILDING STORY 4 THERMALZONE 1 VAV TERMINAL OUTLET AIR NODE,Air,4
 Node,52,BUILDING STORY 4 THERMALZONE 1 RETURN AIR NODE,Air,2
 Node,53,BUILDING STORY 4 THERMALZONE 2 VAV TERMINAL OUTLET AIR NODE,Air,4
 Node,54,BUILDING STORY 4 THERMALZONE 2 RETURN AIR NODE,Air,2
 Node,55,BUILDING STORY 4 THERMALZONE 3 VAV TERMINAL OUTLET AIR NODE,Air,4
 Node,56,BUILDING STORY 4 THERMALZONE 3 RETURN AIR NODE,Air,2
 Node,57,BUILDING STORY 4 THERMALZONE 4 VAV TERMINAL OUTLET AIR NODE,Air,4
 Node,58,BUILDING STORY 4 THERMALZONE 4 RETURN AIR NODE,Air,2
 Node,59,BUILDING STORY 4 THERMALZONE 5 VAV TERMINAL OUTLET AIR NODE,Air,4
 Node,60,BUILDING STORY 4 THERMALZONE 5 RETURN AIR NODE,Air,2
 Node,61,BUILDING STORY 4 THERMALZONE 6 VAV TERMINAL OUTLET AIR NODE,Air,4
 Node,62,BUILDING STORY 4 THERMALZONE 6 RETURN AIR NODE,Air,2
 Node,63,BUILDING STORY 4 THERMALZONE 7 VAV TERMINAL OUTLET AIR NODE,Air,4
 Node,64,BUILDING STORY 4 THERMALZONE 7 RETURN AIR NODE,Air,2
 Node,65,8 ZONE VAV SUPPLY OUTLET NODE,Air,10
 Node,66,8 ZONE VAV DEMAND INLET NODE,Air,3
 Node,67,8 ZONE VAV 1 SUPPLY OUTLET NODE,Air,10
 Node,68,8 ZONE VAV 1 DEMAND INLET NODE,Air,3
 Node,69,8 ZONE VAV 2 SUPPLY OUTLET NODE,Air,10
 Node,70,8 ZONE VAV 2 DEMAND INLET NODE,Air,3
 Node,71,8 ZONE VAV 3 SUPPLY OUTLET NODE,Air,10
 Node,72,8 ZONE VAV 3 DEMAND INLET NODE,Air,3
 Node,73,8 ZONE VAV SUPPLY INLET NODE,Air,3
 Node,74,8 ZONE VAV MIXED AIR NODE,Air,5
 Node,75,8 ZONE VAV CLG COIL OUTLET AIR NODE,Air,5
 Node,76,8 ZONE VAV MAIN HTG COIL OUTLET AIR NODE,Air,8
 Node,77,8 ZONE VAV 1 SUPPLY INLET NODE,Air,3
 Node,78,8 ZONE VAV 1 MIXED AIR NODE,Air,5
 Node,79,8 ZONE VAV 1 CLG COIL OUTLET AIR NODE,Air,5
 Node,80,8 ZONE VAV 1 MAIN HTG COIL OUTLET AIR NODE,Air,8
 Node,81,8 ZONE VAV 2 SUPPLY INLET NODE,Air,3
 Node,82,8 ZONE VAV 2 MIXED AIR NODE,Air,5
 Node,83,8 ZONE VAV 2 CLG COIL OUTLET AIR NODE,Air,5
 Node,84,8 ZONE VAV 2 MAIN HTG COIL OUTLET AIR NODE,Air,8
 Node,85,8 ZONE VAV 3 SUPPLY INLET NODE,Air,3
 Node,86,8 ZONE VAV 3 MIXED AIR NODE,Air,5
 Node,87,8 ZONE VAV 3 CLG COIL OUTLET AIR NODE,Air,5
 Node,88,8 ZONE VAV 3 MAIN HTG COIL OUTLET AIR NODE,Air,8
 Node,89,CHILLED WATER LOOP SUPPLY INLET NODE,Water,2
 Node,90,CHILLED WATER LOOP PRIMARY PUMP OUTLET WATER NODE,Water,1
 Node,91,90.1-2013 WATERCOOLED  ROTARY SCREW CHILLER 0 SUPPLY INLET WATER NODE,Water,1
 Node,92,90.1-2013 WATERCOOLED  ROTARY SCREW CHILLER 0 SUPPLY OUTLET WATER NODE,Water,1
 Node,93,CHILLED WATER LOOP CHILLER BYPASS INLET WATER NODE,Water,1
 Node,94,CHILLED WATER LOOP CHILLER BYPASS OUTLET WATER NODE,Water,1
 Node,95,CHILLED WATER LOOP SUPPLY OUTLET INLET WATER NODE,Water,1
 Node,96,CHILLED WATER LOOP SUPPLY OUTLET NODE,Water,4
 Node,97,CHILLED WATER LOOP DEMAND INLET NODE,Water,2
 Node,98,CHILLED WATER LOOP SECONDARY PUMP INLET WATER NODE,Water,3
 Node,99,CHILLED WATER LOOP SECONDARY PUMP OUTLET WATER NODE,Water,1
 Node,100,CHILLED WATER LOOP COIL BYPASS INLET WATER NODE,Water,1
 Node,101,CHILLED WATER LOOP COIL BYPASS OUTLET WATER NODE,Water,1
 Node,102,8 ZONE VAV CLG COIL INLET WATER NODE,Water,2
 Node,103,8 ZONE VAV CLG COIL OUTLET WATER NODE,Water,1
 Node,104,8 ZONE VAV 1 CLG COIL INLET WATER NODE,Water,2
 Node,105,8 ZONE VAV 1 CLG COIL OUTLET WATER NODE,Water,1
 Node,106,8 ZONE VAV 2 CLG COIL INLET WATER NODE,Water,2
 Node,107,8 ZONE VAV 2 CLG COIL OUTLET WATER NODE,Water,1
 Node,108,8 ZONE VAV 3 CLG COIL INLET WATER NODE,Water,2
 Node,109,8 ZONE VAV 3 CLG COIL OUTLET WATER NODE,Water,1
 Node,110,CHILLED WATER LOOP DEMAND BYPASS PIPE INLET NODE,Water,1
 Node,111,CHILLED WATER LOOP DEMAND BYPASS PIPE OUTLET NODE,Water,1
 Node,112,CHILLED WATER LOOP DEMAND OUTLET INLET WATER NODE,Water,1
 Node,113,CHILLED WATER LOOP DEMAND OUTLET NODE,Water,2
 Node,114,CONDENSER WATER LOOP SUPPLY INLET NODE,Water,2
 Node,115,CONDENSER WATER LOOP CONSTANT PUMP OUTLET WATER NODE,Water,1
 Node,116,PROPELLER OR AXIAL VARIABLE SPEED FAN OPEN COOLING TOWER INLET WATER NODE,Water,1
 Node,117,PROPELLER OR AXIAL VARIABLE SPEED FAN OPEN COOLING TOWER OUTLET WATER NODE,Water,1
 Node,118,CONDENSER WATER LOOP COOLING TOWER BYPASS INLET WATER NODE,Water,1
 Node,119,CONDENSER WATER LOOP COOLING TOWER BYPASS OUTLET WATER NODE,Water,1
 Node,120,CONDENSER WATER LOOP SUPPLY OUTLET INLET WATER NODE,Water,1
 Node,121,CONDENSER WATER LOOP SUPPLY OUTLET NODE,Water,4
 Node,122,CONDENSER WATER LOOP DEMAND INLET NODE,Water,2
 Node,123,CONDENSER WATER LOOP DEMAND INLET OUTLET WATER NODE,Water,1
 Node,124,CONDENSER WATER LOOP CHILLER BYPASS INLET WATER NODE,Water,1
 Node,125,CONDENSER WATER LOOP CHILLER BYPASS OUTLET WATER NODE,Water,1
 Node,126,90.1-2013 WATERCOOLED  ROTARY SCREW CHILLER 0 DEMAND INLET WATER NODE,Water,1
 Node,127,90.1-2013 WATERCOOLED  ROTARY SCREW CHILLER 0 DEMAND OUTLET WATER NODE,Water,1
 Node,128,CONDENSER WATER LOOP DEMAND BYPASS PIPE INLET NODE,Water,1
 Node,129,CONDENSER WATER LOOP DEMAND BYPASS PIPE OUTLET NODE,Water,1
 Node,130,CONDENSER WATER LOOP DEMAND OUTLET INLET WATER NODE,Water,1
 Node,131,CONDENSER WATER LOOP DEMAND OUTLET NODE,Water,2
 Node,132,FULLSERVICERESTAURANT KITCHEN - 90.1-2013 SERVICE WATER BOOSTER LOOP SUPPLY INLET NODE,Water,2
 Node,133,BOOSTER WATER LOOP PUMP INLET WATER NODE,Water,3
 Node,134,BOOSTER WATER LOOP PUMP OUTLET WATER NODE,Water,1
 Node,135,6.0GAL ELECTRICITY BOOSTER WATER HEATER - 1100KBTU/HR SUPPLY INLET WATER NODE,Water,1
 Node,136,6.0GAL ELECTRICITY BOOSTER WATER HEATER - 1100KBTU/HR SUPPLY OUTLET WATER NODE,Water,1
 Node,137,PIPE ADIABATIC 5 INLET WATER NODE,Water,1
 Node,138,PIPE ADIABATIC 5 OUTLET WATER NODE,Water,1
 Node,139,PIPE ADIABATIC 7 INLET WATER NODE,Water,1
 Node,140,FULLSERVICERESTAURANT KITCHEN - 90.1-2013 SERVICE WATER BOOSTER LOOP SUPPLY OUTLET NODE,Water,5
 Node,141,FULLSERVICERESTAURANT KITCHEN - 90.1-2013 SERVICE WATER BOOSTER LOOP DEMAND INLET NODE,Water,2
 Node,142,PIPE ADIABATIC 8 OUTLET WATER NODE,Water,1
 Node,143,PIPE ADIABATIC 6 INLET WATER NODE,Water,1
 Node,144,PIPE ADIABATIC 6 OUTLET WATER NODE,Water,1
 Node,145,BOOSTER FULLSERVICERESTAURANT KITCHEN - 90.1-2013 WUC 90.91GPM AT 180F INLET WATER NODE,Water,1
 Node,146,BOOSTER FULLSERVICERESTAURANT KITCHEN - 90.1-2013 WUC 90.91GPM AT 180F OUTLET WATER NODE,Water,1
 Node,147,FULLSERVICERESTAURANT KITCHEN - 90.1-2013 SERVICE WATER BOOSTER LOOP DEMAND BYPASS PIPE INLET NODE,Water,1
 Node,148,FULLSERVICERESTAURANT KITCHEN - 90.1-2013 SERVICE WATER BOOSTER LOOP DEMAND BYPASS PIPE OUTLET NODE,Water,1
 Node,149,PIPE ADIABATIC 9 INLET WATER NODE,Water,1
 Node,150,FULLSERVICERESTAURANT KITCHEN - 90.1-2013 SERVICE WATER BOOSTER LOOP DEMAND OUTLET NODE,Water,2
 Node,151,FULLSERVICERESTAURANT KITCHEN - 90.1-2013 SERVICE WATER LOOP SUPPLY INLET NODE,Water,2
 Node,152,FULLSERVICERESTAURANT KITCHEN - 90.1-2013 SERVICE WATER LOOP WATER MAINS PRESSURE DRIVEN OUTLET WATER NODE,Water,1
 Node,153,5727GAL NATURALGAS WATER HEATER - 5727KBTU/HR SUPPLY INLET WATER NODE,Water,1
 Node,154,5727GAL NATURALGAS WATER HEATER - 5727KBTU/HR SUPPLY OUTLET WATER NODE,Water,1
 Node,155,PIPE ADIABATIC 1 INLET WATER NODE,Water,1
 Node,156,PIPE ADIABATIC 1 OUTLET WATER NODE,Water,1
 Node,157,PIPE ADIABATIC 3 INLET WATER NODE,Water,1
 Node,158,FULLSERVICERESTAURANT KITCHEN - 90.1-2013 SERVICE WATER LOOP SUPPLY OUTLET NODE,Water,4
 Node,159,FULLSERVICERESTAURANT KITCHEN - 90.1-2013 SERVICE WATER LOOP DEMAND INLET NODE,Water,2
 Node,160,FULLSERVICERESTAURANT KITCHEN - 90.1-2013 SERVICE WATER LOOP PIPE 20.0FT OUTLET WATER NODE,Water,1
 Node,161,PIPE ADIABATIC 2 INLET WATER NODE,Water,1
 Node,162,PIPE ADIABATIC 2 OUTLET WATER NODE,Water,1
 Node,163,FULLSERVICERESTAURANT KITCHEN - 90.1-2013 WUC 60.61GPM AT 140F INLET WATER NODE,Water,1
 Node,164,FULLSERVICERESTAURANT KITCHEN - 90.1-2013 WUC 60.61GPM AT 140F OUTLET WATER NODE,Water,1
 Node,165,HX FOR BOOSTER WATER HEATING DEMAND INLET WATER NODE,Water,1
 Node,166,MAINS WATER MAKEUP FOR SWH BOOSTER INLET WATER NODE,Water,3
 Node,167,MAINS WATER MAKEUP FOR SWH BOOSTER OUTLET WATER NODE,Water,1
 Node,168,FULLSERVICERESTAURANT KITCHEN - 90.1-2013 SERVICE WATER LOOP DEMAND BYPASS PIPE INLET NODE,Water,1
 Node,169,FULLSERVICERESTAURANT KITCHEN - 90.1-2013 SERVICE WATER LOOP DEMAND BYPASS PIPE OUTLET NODE,Water,1
 Node,170,PIPE ADIABATIC 4 INLET WATER NODE,Water,1
 Node,171,FULLSERVICERESTAURANT KITCHEN - 90.1-2013 SERVICE WATER LOOP DEMAND OUTLET NODE,Water,2
 Node,172,HOT WATER LOOP SUPPLY INLET NODE,Water,2
 Node,173,HOT WATER LOOP PUMP OUTLET WATER NODE,Water,1
 Node,174,BOILER INLET WATER NODE,Water,1
 Node,175,BOILER OUTLET WATER NODE,Water,1
 Node,176,HOT WATER LOOP SUPPLY EQUIPMENT BYPASS INLET WATER NODE,Water,1
 Node,177,HOT WATER LOOP SUPPLY EQUIPMENT BYPASS OUTLET WATER NODE,Water,1
 Node,178,HOT WATER LOOP SUPPLY OUTLET INLET WATER NODE,Water,1
 Node,179,HOT WATER LOOP SUPPLY OUTLET NODE,Water,4
 Node,180,HOT WATER LOOP DEMAND INLET NODE,Water,2
 Node,181,HOT WATER LOOP DEMAND INLET OUTLET WATER NODE,Water,1
 Node,182,HOT WATER LOOP COIL BYPASS INLET WATER NODE,Water,1
 Node,183,HOT WATER LOOP COIL BYPASS OUTLET WATER NODE,Water,1
 Node,184,8 ZONE VAV MAIN HTG COIL INLET WATER NODE,Water,2
 Node,185,8 ZONE VAV MAIN HTG COIL OUTLET WATER NODE,Water,1
 Node,186,BUILDING STORY 1 THERMALZONE REHEAT COIL INLET WATER NODE,Water,1
 Node,187,BUILDING STORY 1 THERMALZONE REHEAT COIL OUTLET WATER NODE,Water,1
 Node,188,BUILDING STORY 1 THERMALZONE 1 REHEAT COIL INLET WATER NODE,Water,1
 Node,189,BUILDING STORY 1 THERMALZONE 1 REHEAT COIL OUTLET WATER NODE,Water,1
 Node,190,BUILDING STORY 1 THERMALZONE 2 REHEAT COIL INLET WATER NODE,Water,1
 Node,191,BUILDING STORY 1 THERMALZONE 2 REHEAT COIL OUTLET WATER NODE,Water,1
 Node,192,BUILDING STORY 1 THERMALZONE 7 REHEAT COIL INLET WATER NODE,Water,1
 Node,193,BUILDING STORY 1 THERMALZONE 7 REHEAT COIL OUTLET WATER NODE,Water,1
 Node,194,BUILDING STORY 1 THERMALZONE 4 REHEAT COIL INLET WATER NODE,Water,1
 Node,195,BUILDING STORY 1 THERMALZONE 4 REHEAT COIL OUTLET WATER NODE,Water,1
 Node,196,BUILDING STORY 1 THERMALZONE 5 REHEAT COIL INLET WATER NODE,Water,1
 Node,197,BUILDING STORY 1 THERMALZONE 5 REHEAT COIL OUTLET WATER NODE,Water,1
 Node,198,BUILDING STORY 1 THERMALZONE 6 REHEAT COIL INLET WATER NODE,Water,1
 Node,199,BUILDING STORY 1 THERMALZONE 6 REHEAT COIL OUTLET WATER NODE,Water,1
 Node,200,BUILDING STORY 1 THERMALZONE 3 REHEAT COIL INLET WATER NODE,Water,1
 Node,201,BUILDING STORY 1 THERMALZONE 3 REHEAT COIL OUTLET WATER NODE,Water,1
 Node,202,8 ZONE VAV 1 MAIN HTG COIL INLET WATER NODE,Water,2
 Node,203,8 ZONE VAV 1 MAIN HTG COIL OUTLET WATER NODE,Water,1
 Node,204,BUILDING STORY 2 THERMALZONE 1 REHEAT COIL INLET WATER NODE,Water,1
 Node,205,BUILDING STORY 2 THERMALZONE 1 REHEAT COIL OUTLET WATER NODE,Water,1
 Node,206,BUILDING STORY 2 THERMALZONE 2 REHEAT COIL INLET WATER NODE,Water,1
 Node,207,BUILDING STORY 2 THERMALZONE 2 REHEAT COIL OUTLET WATER NODE,Water,1
 Node,208,BUILDING STORY 2 THERMALZONE 3 REHEAT COIL INLET WATER NODE,Water,1
 Node,209,BUILDING STORY 2 THERMALZONE 3 REHEAT COIL OUTLET WATER NODE,Water,1
 Node,210,BUILDING STORY 2 THERMALZONE 4 REHEAT COIL INLET WATER NODE,Water,1
 Node,211,BUILDING STORY 2 THERMALZONE 4 REHEAT COIL OUTLET WATER NODE,Water,1
 Node,212,BUILDING STORY 2 THERMALZONE 5 REHEAT COIL INLET WATER NODE,Water,1
 Node,213,BUILDING STORY 2 THERMALZONE 5 REHEAT COIL OUTLET WATER NODE,Water,1
 Node,214,BUILDING STORY 2 THERMALZONE 6 REHEAT COIL INLET WATER NODE,Water,1
 Node,215,BUILDING STORY 2 THERMALZONE 6 REHEAT COIL OUTLET WATER NODE,Water,1
 Node,216,BUILDING STORY 2 THERMALZONE 7 REHEAT COIL INLET WATER NODE,Water,1
 Node,217,BUILDING STORY 2 THERMALZONE 7 REHEAT COIL OUTLET WATER NODE,Water,1
 Node,218,BUILDING STORY 2 THERMALZONE REHEAT COIL INLET WATER NODE,Water,1
 Node,219,BUILDING STORY 2 THERMALZONE REHEAT COIL OUTLET WATER NODE,Water,1
 Node,220,8 ZONE VAV 2 MAIN HTG COIL INLET WATER NODE,Water,2
 Node,221,8 ZONE VAV 2 MAIN HTG COIL OUTLET WATER NODE,Water,1
 Node,222,BUILDING STORY 3 THERMALZONE 7 REHEAT COIL INLET WATER NODE,Water,1
 Node,223,BUILDING STORY 3 THERMALZONE 7 REHEAT COIL OUTLET WATER NODE,Water,1
 Node,224,BUILDING STORY 3 THERMALZONE 1 REHEAT COIL INLET WATER NODE,Water,1
 Node,225,BUILDING STORY 3 THERMALZONE 1 REHEAT COIL OUTLET WATER NODE,Water,1
 Node,226,BUILDING STORY 3 THERMALZONE 2 REHEAT COIL INLET WATER NODE,Water,1
 Node,227,BUILDING STORY 3 THERMALZONE 2 REHEAT COIL OUTLET WATER NODE,Water,1
 Node,228,BUILDING STORY 3 THERMALZONE 3 REHEAT COIL INLET WATER NODE,Water,1
 Node,229,BUILDING STORY 3 THERMALZONE 3 REHEAT COIL OUTLET WATER NODE,Water,1
 Node,230,BUILDING STORY 3 THERMALZONE 4 REHEAT COIL INLET WATER NODE,Water,1
 Node,231,BUILDING STORY 3 THERMALZONE 4 REHEAT COIL OUTLET WATER NODE,Water,1
 Node,232,BUILDING STORY 3 THERMALZONE 5 REHEAT COIL INLET WATER NODE,Water,1
 Node,233,BUILDING STORY 3 THERMALZONE 5 REHEAT COIL OUTLET WATER NODE,Water,1
 Node,234,BUILDING STORY 3 THERMALZONE 6 REHEAT COIL INLET WATER NODE,Water,1
 Node,235,BUILDING STORY 3 THERMALZONE 6 REHEAT COIL OUTLET WATER NODE,Water,1
 Node,236,BUILDING STORY 3 THERMALZONE REHEAT COIL INLET WATER NODE,Water,1
 Node,237,BUILDING STORY 3 THERMALZONE REHEAT COIL OUTLET WATER NODE,Water,1
 Node,238,8 ZONE VAV 3 MAIN HTG COIL INLET WATER NODE,Water,2
 Node,239,8 ZONE VAV 3 MAIN HTG COIL OUTLET WATER NODE,Water,1
 Node,240,BUILDING STORY 4 THERMALZONE REHEAT COIL INLET WATER NODE,Water,1
 Node,241,BUILDING STORY 4 THERMALZONE REHEAT COIL OUTLET WATER NODE,Water,1
 Node,242,BUILDING STORY 4 THERMALZONE 3 REHEAT COIL INLET WATER NODE,Water,1
 Node,243,BUILDING STORY 4 THERMALZONE 3 REHEAT COIL OUTLET WATER NODE,Water,1
 Node,244,BUILDING STORY 4 THERMALZONE 4 REHEAT COIL INLET WATER NODE,Water,1
 Node,245,BUILDING STORY 4 THERMALZONE 4 REHEAT COIL OUTLET WATER NODE,Water,1
 Node,246,BUILDING STORY 4 THERMALZONE 7 REHEAT COIL INLET WATER NODE,Water,1
 Node,247,BUILDING STORY 4 THERMALZONE 7 REHEAT COIL OUTLET WATER NODE,Water,1
 Node,248,BUILDING STORY 4 THERMALZONE 6 REHEAT COIL INLET WATER NODE,Water,1
 Node,249,BUILDING STORY 4 THERMALZONE 6 REHEAT COIL OUTLET WATER NODE,Water,1
 Node,250,BUILDING STORY 4 THERMALZONE 1 REHEAT COIL INLET WATER NODE,Water,1
 Node,251,BUILDING STORY 4 THERMALZONE 1 REHEAT COIL OUTLET WATER NODE,Water,1
 Node,252,BUILDING STORY 4 THERMALZONE 2 REHEAT COIL INLET WATER NODE,Water,1
 Node,253,BUILDING STORY 4 THERMALZONE 2 REHEAT COIL OUTLET WATER NODE,Water,1
 Node,254,BUILDING STORY 4 THERMALZONE 5 REHEAT COIL INLET WATER NODE,Water,1
 Node,255,BUILDING STORY 4 THERMALZONE 5 REHEAT COIL OUTLET WATER NODE,Water,1
 Node,256,HOT WATER LOOP DEMAND BYPASS PIPE INLET NODE,Water,1
 Node,257,HOT WATER LOOP DEMAND BYPASS PIPE OUTLET NODE,Water,1
 Node,258,HOT WATER LOOP DEMAND OUTLET INLET WATER NODE,Water,1
 Node,259,HOT WATER LOOP DEMAND OUTLET NODE,Water,2
 Node,260,OFFICE SHARED SERVICE WATER LOOP SUPPLY INLET NODE,Water,2
 Node,261,OFFICE SHARED SERVICE WATER LOOP CIRCULATOR PUMP OUTLET WATER NODE,Water,1
 Node,262,113GAL ELECTRICITY WATER HEATER - 113KBTU/HR SUPPLY INLET WATER NODE,Water,1
 Node,263,113GAL ELECTRICITY WATER HEATER - 113KBTU/HR SUPPLY OUTLET WATER NODE,Water,1
 Node,264,PIPE ADIABATIC 10 INLET WATER NODE,Water,1
 Node,265,PIPE ADIABATIC 10 OUTLET WATER NODE,Water,1
 Node,266,PIPE ADIABATIC 12 INLET WATER NODE,Water,1
 Node,267,OFFICE SHARED SERVICE WATER LOOP SUPPLY OUTLET NODE,Water,4
 Node,268,OFFICE SHARED SERVICE WATER LOOP DEMAND INLET NODE,Water,2
 Node,269,OFFICE SHARED SERVICE WATER LOOP PIPE 887.285420147255FT OUTLET WATER NODE,Water,1
 Node,270,PIPE ADIABATIC 11 INLET WATER NODE,Water,1
 Node,271,PIPE ADIABATIC 11 OUTLET WATER NODE,Water,1
 Node,272,OFFICE WHOLEBUILDING - LG OFFICE - 90.1-2013 WUC 3.15GPM AT 140F INLET WATER NODE,Water,1
 Node,273,OFFICE WHOLEBUILDING - LG OFFICE - 90.1-2013 WUC 3.15GPM AT 140F OUTLET WATER NODE,Water,1
 Node,274,OFFICE SHARED SERVICE WATER LOOP DEMAND BYPASS PIPE INLET NODE,Water,1
 Node,275,OFFICE SHARED SERVICE WATER LOOP DEMAND BYPASS PIPE OUTLET NODE,Water,1
 Node,276,PIPE ADIABATIC 13 INLET WATER NODE,Water,1
 Node,277,OFFICE SHARED SERVICE WATER LOOP DEMAND OUTLET NODE,Water,2
 Node,278,BUILDING STORY 1 THERMALZONE ZONE AIR NODE,Air,0
 Node,279,BUILDING STORY 1 THERMALZONE 1 ZONE AIR NODE,Air,0
 Node,280,BUILDING STORY 1 THERMALZONE 2 ZONE AIR NODE,Air,0
 Node,281,BUILDING STORY 1 THERMALZONE 3 ZONE AIR NODE,Air,0
 Node,282,BUILDING STORY 1 THERMALZONE 4 ZONE AIR NODE,Air,0
 Node,283,BUILDING STORY 1 THERMALZONE 5 ZONE AIR NODE,Air,0
 Node,284,BUILDING STORY 1 THERMALZONE 6 ZONE AIR NODE,Air,0
 Node,285,BUILDING STORY 1 THERMALZONE 7 ZONE AIR NODE,Air,0
 Node,286,BUILDING STORY 2 THERMALZONE ZONE AIR NODE,Air,0
 Node,287,BUILDING STORY 2 THERMALZONE 1 ZONE AIR NODE,Air,0
 Node,288,BUILDING STORY 2 THERMALZONE 2 ZONE AIR NODE,Air,0
 Node,289,BUILDING STORY 2 THERMALZONE 3 ZONE AIR NODE,Air,0
 Node,290,BUILDING STORY 2 THERMALZONE 4 ZONE AIR NODE,Air,0
 Node,291,BUILDING STORY 2 THERMALZONE 5 ZONE AIR NODE,Air,0
 Node,292,BUILDING STORY 2 THERMALZONE 6 ZONE AIR NODE,Air,0
 Node,293,BUILDING STORY 2 THERMALZONE 7 ZONE AIR NODE,Air,0
 Node,294,BUILDING STORY 3 THERMALZONE ZONE AIR NODE,Air,0
 Node,295,BUILDING STORY 3 THERMALZONE 1 ZONE AIR NODE,Air,0
 Node,296,BUILDING STORY 3 THERMALZONE 2 ZONE AIR NODE,Air,0
 Node,297,BUILDING STORY 3 THERMALZONE 3 ZONE AIR NODE,Air,0
 Node,298,BUILDING STORY 3 THERMALZONE 4 ZONE AIR NODE,Air,0
 Node,299,BUILDING STORY 3 THERMALZONE 5 ZONE AIR NODE,Air,0
 Node,300,BUILDING STORY 3 THERMALZONE 6 ZONE AIR NODE,Air,0
 Node,301,BUILDING STORY 3 THERMALZONE 7 ZONE AIR NODE,Air,0
 Node,302,BUILDING STORY 4 THERMALZONE ZONE AIR NODE,Air,0
 Node,303,BUILDING STORY 4 THERMALZONE 1 ZONE AIR NODE,Air,0
 Node,304,BUILDING STORY 4 THERMALZONE 2 ZONE AIR NODE,Air,0
 Node,305,BUILDING STORY 4 THERMALZONE 3 ZONE AIR NODE,Air,0
 Node,306,BUILDING STORY 4 THERMALZONE 4 ZONE AIR NODE,Air,0
 Node,307,BUILDING STORY 4 THERMALZONE 5 ZONE AIR NODE,Air,0
 Node,308,BUILDING STORY 4 THERMALZONE 6 ZONE AIR NODE,Air,0
 Node,309,BUILDING STORY 4 THERMALZONE 7 ZONE AIR NODE,Air,0
 Node,310,8 ZONE VAV DEMAND OUTLET NODE,Air,2
 Node,311,8 ZONE VAV 1 DEMAND OUTLET NODE,Air,2
 Node,312,8 ZONE VAV 2 DEMAND OUTLET NODE,Air,2
 Node,313,8 ZONE VAV 3 DEMAND OUTLET NODE,Air,2
 Node,314,8 ZONE VAV OUTDOOR AIR NODE,Air,2
 Node,315,8 ZONE VAV 1 OUTDOOR AIR NODE,Air,2
 Node,316,8 ZONE VAV 2 OUTDOOR AIR NODE,Air,2
 Node,317,8 ZONE VAV 3 OUTDOOR AIR NODE,Air,2
 Node,318,MODEL OUTDOOR AIR NODE,Air,0
 Node,319,BUILDING STORY 1 THERMALZONE VAV TERMINAL INLET AIR NODE,Air,1
 Node,320,BUILDING STORY 1 THERMALZONE 1 VAV TERMINAL INLET AIR NODE,Air,1
 Node,321,BUILDING STORY 1 THERMALZONE 2 VAV TERMINAL INLET AIR NODE,Air,1
 Node,322,BUILDING STORY 1 THERMALZONE 7 VAV TERMINAL INLET AIR NODE,Air,1
 Node,323,BUILDING STORY 1 THERMALZONE 4 VAV TERMINAL INLET AIR NODE,Air,1
 Node,324,BUILDING STORY 1 THERMALZONE 5 VAV TERMINAL INLET AIR NODE,Air,1
 Node,325,BUILDING STORY 1 THERMALZONE 6 VAV TERMINAL INLET AIR NODE,Air,1
 Node,326,BUILDING STORY 1 THERMALZONE 3 VAV TERMINAL INLET AIR NODE,Air,1
 Node,327,BUILDING STORY 2 THERMALZONE 1 VAV TERMINAL INLET AIR NODE,Air,1
 Node,328,BUILDING STORY 2 THERMALZONE 2 VAV TERMINAL INLET AIR NODE,Air,1
 Node,329,BUILDING STORY 2 THERMALZONE 3 VAV TERMINAL INLET AIR NODE,Air,1
 Node,330,BUILDING STORY 2 THERMALZONE 4 VAV TERMINAL INLET AIR NODE,Air,1
 Node,331,BUILDING STORY 2 THERMALZONE 5 VAV TERMINAL INLET AIR NODE,Air,1
 Node,332,BUILDING STORY 2 THERMALZONE 6 VAV TERMINAL INLET AIR NODE,Air,1
 Node,333,BUILDING STORY 2 THERMALZONE 7 VAV TERMINAL INLET AIR NODE,Air,1
 Node,334,BUILDING STORY 2 THERMALZONE VAV TERMINAL INLET AIR NODE,Air,1
 Node,335,BUILDING STORY 3 THERMALZONE 7 VAV TERMINAL INLET AIR NODE,Air,1
 Node,336,BUILDING STORY 3 THERMALZONE 1 VAV TERMINAL INLET AIR NODE,Air,1
 Node,337,BUILDING STORY 3 THERMALZONE 2 VAV TERMINAL INLET AIR NODE,Air,1
 Node,338,BUILDING STORY 3 THERMALZONE 3 VAV TERMINAL INLET AIR NODE,Air,1
 Node,339,BUILDING STORY 3 THERMALZONE 4 VAV TERMINAL INLET AIR NODE,Air,1
 Node,340,BUILDING STORY 3 THERMALZONE 5 VAV TERMINAL INLET AIR NODE,Air,1
 Node,341,BUILDING STORY 3 THERMALZONE 6 VAV TERMINAL INLET AIR NODE,Air,1
 Node,342,BUILDING STORY 3 THERMALZONE VAV TERMINAL INLET AIR NODE,Air,1
 Node,343,BUILDING STORY 4 THERMALZONE VAV TERMINAL INLET AIR NODE,Air,1
 Node,344,BUILDING STORY 4 THERMALZONE 3 VAV TERMINAL INLET AIR NODE,Air,1
 Node,345,BUILDING STORY 4 THERMALZONE 4 VAV TERMINAL INLET AIR NODE,Air,1
 Node,346,BUILDING STORY 4 THERMALZONE 7 VAV TERMINAL INLET AIR NODE,Air,1
 Node,347,BUILDING STORY 4 THERMALZONE 6 VAV TERMINAL INLET AIR NODE,Air,1
 Node,348,BUILDING STORY 4 THERMALZONE 1 VAV TERMINAL INLET AIR NODE,Air,1
 Node,349,BUILDING STORY 4 THERMALZONE 2 VAV TERMINAL INLET AIR NODE,Air,1
 Node,350,BUILDING STORY 4 THERMALZONE 5 VAV TERMINAL INLET AIR NODE,Air,1
 Node,351,BUILDING STORY 1 THERMALZONE VAV TERMINAL DAMPER OUTLET,Air,1
 Node,352,BUILDING STORY 1 THERMALZONE 1 VAV TERMINAL DAMPER OUTLET,Air,1
 Node,353,BUILDING STORY 1 THERMALZONE 2 VAV TERMINAL DAMPER OUTLET,Air,1
 Node,354,BUILDING STORY 1 THERMALZONE 3 VAV TERMINAL DAMPER OUTLET,Air,1
 Node,355,BUILDING STORY 1 THERMALZONE 4 VAV TERMINAL DAMPER OUTLET,Air,1
 Node,356,BUILDING STORY 1 THERMALZONE 5 VAV TERMINAL DAMPER OUTLET,Air,1
 Node,357,BUILDING STORY 1 THERMALZONE 6 VAV TERMINAL DAMPER OUTLET,Air,1
 Node,358,BUILDING STORY 1 THERMALZONE 7 VAV TERMINAL DAMPER OUTLET,Air,1
 Node,359,BUILDING STORY 2 THERMALZONE VAV TERMINAL DAMPER OUTLET,Air,1
 Node,360,BUILDING STORY 2 THERMALZONE 1 VAV TERMINAL DAMPER OUTLET,Air,1
 Node,361,BUILDING STORY 2 THERMALZONE 2 VAV TERMINAL DAMPER OUTLET,Air,1
 Node,362,BUILDING STORY 2 THERMALZONE 3 VAV TERMINAL DAMPER OUTLET,Air,1
 Node,363,BUILDING STORY 2 THERMALZONE 4 VAV TERMINAL DAMPER OUTLET,Air,1
 Node,364,BUILDING STORY 2 THERMALZONE 5 VAV TERMINAL DAMPER OUTLET,Air,1
 Node,365,BUILDING STORY 2 THERMALZONE 6 VAV TERMINAL DAMPER OUTLET,Air,1
 Node,366,BUILDING STORY 2 THERMALZONE 7 VAV TERMINAL DAMPER OUTLET,Air,1
 Node,367,BUILDING STORY 3 THERMALZONE VAV TERMINAL DAMPER OUTLET,Air,1
 Node,368,BUILDING STORY 3 THERMALZONE 1 VAV TERMINAL DAMPER OUTLET,Air,1
 Node,369,BUILDING STORY 3 THERMALZONE 2 VAV TERMINAL DAMPER OUTLET,Air,1
 Node,370,BUILDING STORY 3 THERMALZONE 3 VAV TERMINAL DAMPER OUTLET,Air,1
 Node,371,BUILDING STORY 3 THERMALZONE 4 VAV TERMINAL DAMPER OUTLET,Air,1
 Node,372,BUILDING STORY 3 THERMALZONE 5 VAV TERMINAL DAMPER OUTLET,Air,1
 Node,373,BUILDING STORY 3 THERMALZONE 6 VAV TERMINAL DAMPER OUTLET,Air,1
 Node,374,BUILDING STORY 3 THERMALZONE 7 VAV TERMINAL DAMPER OUTLET,Air,1
 Node,375,BUILDING STORY 4 THERMALZONE VAV TERMINAL DAMPER OUTLET,Air,1
 Node,376,BUILDING STORY 4 THERMALZONE 1 VAV TERMINAL DAMPER OUTLET,Air,1
 Node,377,BUILDING STORY 4 THERMALZONE 2 VAV TERMINAL DAMPER OUTLET,Air,1
 Node,378,BUILDING STORY 4 THERMALZONE 3 VAV TERMINAL DAMPER OUTLET,Air,1
 Node,379,BUILDING STORY 4 THERMALZONE 4 VAV TERMINAL DAMPER OUTLET,Air,1
 Node,380,BUILDING STORY 4 THERMALZONE 5 VAV TERMINAL DAMPER OUTLET,Air,1
 Node,381,BUILDING STORY 4 THERMALZONE 6 VAV TERMINAL DAMPER OUTLET,Air,1
 Node,382,BUILDING STORY 4 THERMALZONE 7 VAV TERMINAL DAMPER OUTLET,Air,1
 Node,383,8 ZONE VAV RELIEF AIR NODE,Air,1
 Node,384,8 ZONE VAV 1 RELIEF AIR NODE,Air,1
 Node,385,8 ZONE VAV 2 RELIEF AIR NODE,Air,1
 Node,386,8 ZONE VAV 3 RELIEF AIR NODE,Air,1
! ===============================================================
! Suspicious nodes have 0 references.  It is normal for some nodes, however.
! Listing nodes with 0 references (culled from previous list):
! <Suspicious Node>,<NodeNumber>,<Node Name>,<Node Fluid Type>,<# Times Node Referenced After Definition>
 Suspicious Node,278,BUILDING STORY 1 THERMALZONE ZONE AIR NODE,Air,0
 Suspicious Node,279,BUILDING STORY 1 THERMALZONE 1 ZONE AIR NODE,Air,0
 Suspicious Node,280,BUILDING STORY 1 THERMALZONE 2 ZONE AIR NODE,Air,0
 Suspicious Node,281,BUILDING STORY 1 THERMALZONE 3 ZONE AIR NODE,Air,0
 Suspicious Node,282,BUILDING STORY 1 THERMALZONE 4 ZONE AIR NODE,Air,0
 Suspicious Node,283,BUILDING STORY 1 THERMALZONE 5 ZONE AIR NODE,Air,0
 Suspicious Node,284,BUILDING STORY 1 THERMALZONE 6 ZONE AIR NODE,Air,0
 Suspicious Node,285,BUILDING STORY 1 THERMALZONE 7 ZONE AIR NODE,Air,0
 Suspicious Node,286,BUILDING STORY 2 THERMALZONE ZONE AIR NODE,Air,0
 Suspicious Node,287,BUILDING STORY 2 THERMALZONE 1 ZONE AIR NODE,Air,0
 Suspicious Node,288,BUILDING STORY 2 THERMALZONE 2 ZONE AIR NODE,Air,0
 Suspicious Node,289,BUILDING STORY 2 THERMALZONE 3 ZONE AIR NODE,Air,0
 Suspicious Node,290,BUILDING STORY 2 THERMALZONE 4 ZONE AIR NODE,Air,0
 Suspicious Node,291,BUILDING STORY 2 THERMALZONE 5 ZONE AIR NODE,Air,0
 Suspicious Node,292,BUILDING STORY 2 THERMALZONE 6 ZONE AIR NODE,Air,0
 Suspicious Node,293,BUILDING STORY 2 THERMALZONE 7 ZONE AIR NODE,Air,0
 Suspicious Node,294,BUILDING STORY 3 THERMALZONE ZONE AIR NODE,Air,0
 Suspicious Node,295,BUILDING STORY 3 THERMALZONE 1 ZONE AIR NODE,Air,0
 Suspicious Node,296,BUILDING STORY 3 THERMALZONE 2 ZONE AIR NODE,Air,0
 Suspicious Node,297,BUILDING STORY 3 THERMALZONE 3 ZONE AIR NODE,Air,0
 Suspicious Node,298,BUILDING STORY 3 THERMALZONE 4 ZONE AIR NODE,Air,0
 Suspicious Node,299,BUILDING STORY 3 THERMALZONE 5 ZONE AIR NODE,Air,0
 Suspicious Node,300,BUILDING STORY 3 THERMALZONE 6 ZONE AIR NODE,Air,0
 Suspicious Node,301,BUILDING STORY 3 THERMALZONE 7 ZONE AIR NODE,Air,0
 Suspicious Node,302,BUILDING STORY 4 THERMALZONE ZONE AIR NODE,Air,0
 Suspicious Node,303,BUILDING STORY 4 THERMALZONE 1 ZONE AIR NODE,Air,0
 Suspicious Node,304,BUILDING STORY 4 THERMALZONE 2 ZONE AIR NODE,Air,0
 Suspicious Node,305,BUILDING STORY 4 THERMALZONE 3 ZONE AIR NODE,Air,0
 Suspicious Node,306,BUILDING STORY 4 THERMALZONE 4 ZONE AIR NODE,Air,0
 Suspicious Node,307,BUILDING STORY 4 THERMALZONE 5 ZONE AIR NODE,Air,0
 Suspicious Node,308,BUILDING STORY 4 THERMALZONE 6 ZONE AIR NODE,Air,0
 Suspicious Node,309,BUILDING STORY 4 THERMALZONE 7 ZONE AIR NODE,Air,0
 Suspicious Node,318,MODEL OUTDOOR AIR NODE,Air,0
! ===============================================================
! <#Branch Lists>,<Number of Branch Lists>
 #Branch Lists,16
! <Branch List>,<Branch List Count>,<Branch List Name>,<Loop Name>,<Loop Type>,<Number of Branches>
! <Branch>,<Branch Count>,<Branch Name>,<Loop Name>,<Loop Type>,<Branch Inlet Node Name>,<Branch Outlet Node Name>
 Branch List,1,8 ZONE VAV SUPPLY BRANCHES,8 ZONE VAV,Air,1
   Branch,1,8 ZONE VAV MAIN BRANCH,8 ZONE VAV,Air,8 ZONE VAV SUPPLY INLET NODE,8 ZONE VAV SUPPLY OUTLET NODE
 Branch List,2,8 ZONE VAV 1 SUPPLY BRANCHES,8 ZONE VAV 1,Air,1
   Branch,1,8 ZONE VAV 1 MAIN BRANCH,8 ZONE VAV 1,Air,8 ZONE VAV 1 SUPPLY INLET NODE,8 ZONE VAV 1 SUPPLY OUTLET NODE
 Branch List,3,8 ZONE VAV 2 SUPPLY BRANCHES,8 ZONE VAV 2,Air,1
   Branch,1,8 ZONE VAV 2 MAIN BRANCH,8 ZONE VAV 2,Air,8 ZONE VAV 2 SUPPLY INLET NODE,8 ZONE VAV 2 SUPPLY OUTLET NODE
 Branch List,4,8 ZONE VAV 3 SUPPLY BRANCHES,8 ZONE VAV 3,Air,1
   Branch,1,8 ZONE VAV 3 MAIN BRANCH,8 ZONE VAV 3,Air,8 ZONE VAV 3 SUPPLY INLET NODE,8 ZONE VAV 3 SUPPLY OUTLET NODE
 Branch List,5,CHILLED WATER LOOP SUPPLY BRANCHES,CHILLED WATER LOOP,Plant Supply,4
   Branch,1,CHILLED WATER LOOP SUPPLY INLET BRANCH,CHILLED WATER LOOP,Plant Supply,CHILLED WATER LOOP SUPPLY INLET NODE,CHILLED WATER LOOP PRIMARY PUMP OUTLET WATER NODE
   Branch,2,CHILLED WATER LOOP SUPPLY BRANCH 1,CHILLED WATER LOOP,Plant Supply,90.1-2013 WATERCOOLED  ROTARY SCREW CHILLER 0 SUPPLY INLET WATER NODE,90.1-2013 WATERCOOLED  ROTARY SCREW CHILLER 0 SUPPLY OUTLET WATER NODE
   Branch,3,CHILLED WATER LOOP SUPPLY BRANCH 2,CHILLED WATER LOOP,Plant Supply,CHILLED WATER LOOP CHILLER BYPASS INLET WATER NODE,CHILLED WATER LOOP CHILLER BYPASS OUTLET WATER NODE
   Branch,4,CHILLED WATER LOOP SUPPLY OUTLET BRANCH,CHILLED WATER LOOP,Plant Supply,CHILLED WATER LOOP SUPPLY OUTLET INLET WATER NODE,CHILLED WATER LOOP SUPPLY OUTLET NODE
 Branch List,6,CHILLED WATER LOOP DEMAND BRANCHES,CHILLED WATER LOOP,Plant Demand,8
   Branch,1,CHILLED WATER LOOP DEMAND INLET BRANCH,CHILLED WATER LOOP,Plant Demand,CHILLED WATER LOOP DEMAND INLET NODE,CHILLED WATER LOOP SECONDARY PUMP OUTLET WATER NODE
   Branch,2,CHILLED WATER LOOP DEMAND BRANCH 1,CHILLED WATER LOOP,Plant Demand,CHILLED WATER LOOP COIL BYPASS INLET WATER NODE,CHILLED WATER LOOP COIL BYPASS OUTLET WATER NODE
   Branch,3,CHILLED WATER LOOP DEMAND BRANCH 2,CHILLED WATER LOOP,Plant Demand,8 ZONE VAV CLG COIL INLET WATER NODE,8 ZONE VAV CLG COIL OUTLET WATER NODE
   Branch,4,CHILLED WATER LOOP DEMAND BRANCH 3,CHILLED WATER LOOP,Plant Demand,8 ZONE VAV 1 CLG COIL INLET WATER NODE,8 ZONE VAV 1 CLG COIL OUTLET WATER NODE
   Branch,5,CHILLED WATER LOOP DEMAND BRANCH 4,CHILLED WATER LOOP,Plant Demand,8 ZONE VAV 2 CLG COIL INLET WATER NODE,8 ZONE VAV 2 CLG COIL OUTLET WATER NODE
   Branch,6,CHILLED WATER LOOP DEMAND BRANCH 5,CHILLED WATER LOOP,Plant Demand,8 ZONE VAV 3 CLG COIL INLET WATER NODE,8 ZONE VAV 3 CLG COIL OUTLET WATER NODE
   Branch,7,CHILLED WATER LOOP DEMAND BYPASS BRANCH,CHILLED WATER LOOP,Plant Demand,CHILLED WATER LOOP DEMAND BYPASS PIPE INLET NODE,CHILLED WATER LOOP DEMAND BYPASS PIPE OUTLET NODE
   Branch,8,CHILLED WATER LOOP DEMAND OUTLET BRANCH,CHILLED WATER LOOP,Plant Demand,CHILLED WATER LOOP DEMAND OUTLET INLET WATER NODE,CHILLED WATER LOOP DEMAND OUTLET NODE
 Branch List,7,CONDENSER WATER LOOP SUPPLY BRANCHES,CONDENSER WATER LOOP,Plant Supply,4
   Branch,1,CONDENSER WATER LOOP SUPPLY INLET BRANCH,CONDENSER WATER LOOP,Plant Supply,CONDENSER WATER LOOP SUPPLY INLET NODE,CONDENSER WATER LOOP CONSTANT PUMP OUTLET WATER NODE
   Branch,2,CONDENSER WATER LOOP SUPPLY BRANCH 1,CONDENSER WATER LOOP,Plant Supply,PROPELLER OR AXIAL VARIABLE SPEED FAN OPEN COOLING TOWER INLET WATER NODE,PROPELLER OR AXIAL VARIABLE SPEED FAN OPEN COOLING TOWER OUTLET WATER NODE
   Branch,3,CONDENSER WATER LOOP SUPPLY BRANCH 2,CONDENSER WATER LOOP,Plant Supply,CONDENSER WATER LOOP COOLING TOWER BYPASS INLET WATER NODE,CONDENSER WATER LOOP COOLING TOWER BYPASS OUTLET WATER NODE
   Branch,4,CONDENSER WATER LOOP SUPPLY OUTLET BRANCH,CONDENSER WATER LOOP,Plant Supply,CONDENSER WATER LOOP SUPPLY OUTLET INLET WATER NODE,CONDENSER WATER LOOP SUPPLY OUTLET NODE
 Branch List,8,CONDENSER WATER LOOP DEMAND BRANCHES,CONDENSER WATER LOOP,Plant Demand,5
   Branch,1,CONDENSER WATER LOOP DEMAND INLET BRANCH,CONDENSER WATER LOOP,Plant Demand,CONDENSER WATER LOOP DEMAND INLET NODE,CONDENSER WATER LOOP DEMAND INLET OUTLET WATER NODE
   Branch,2,CONDENSER WATER LOOP DEMAND BRANCH 1,CONDENSER WATER LOOP,Plant Demand,CONDENSER WATER LOOP CHILLER BYPASS INLET WATER NODE,CONDENSER WATER LOOP CHILLER BYPASS OUTLET WATER NODE
   Branch,3,CONDENSER WATER LOOP DEMAND BRANCH 2,CONDENSER WATER LOOP,Plant Demand,90.1-2013 WATERCOOLED  ROTARY SCREW CHILLER 0 DEMAND INLET WATER NODE,90.1-2013 WATERCOOLED  ROTARY SCREW CHILLER 0 DEMAND OUTLET WATER NODE
   Branch,4,CONDENSER WATER LOOP DEMAND BYPASS BRANCH,CONDENSER WATER LOOP,Plant Demand,CONDENSER WATER LOOP DEMAND BYPASS PIPE INLET NODE,CONDENSER WATER LOOP DEMAND BYPASS PIPE OUTLET NODE
   Branch,5,CONDENSER WATER LOOP DEMAND OUTLET BRANCH,CONDENSER WATER LOOP,Plant Demand,CONDENSER WATER LOOP DEMAND OUTLET INLET WATER NODE,CONDENSER WATER LOOP DEMAND OUTLET NODE
 Branch List,9,FULLSERVICERESTAURANT KITCHEN - 90.1-2013 SERVICE WATER BOOSTER LOOP SUPPLY BRANCHES,FULLSERVICERESTAURANT KITCHEN - 90.1-2013 SERVICE WATER BOOSTER LOOP,Plant Supply,4
   Branch,1,FULLSERVICERESTAURANT KITCHEN - 90.1-2013 SERVICE WATER BOOSTER LOOP SUPPLY INLET BRANCH,FULLSERVICERESTAURANT KITCHEN - 90.1-2013 SERVICE WATER BOOSTER LOOP,Plant Supply,FULLSERVICERESTAURANT KITCHEN - 90.1-2013 SERVICE WATER BOOSTER LOOP SUPPLY INLET NODE,BOOSTER WATER LOOP PUMP OUTLET WATER NODE
   Branch,2,FULLSERVICERESTAURANT KITCHEN - 90.1-2013 SERVICE WATER BOOSTER LOOP SUPPLY BRANCH 1,FULLSERVICERESTAURANT KITCHEN - 90.1-2013 SERVICE WATER BOOSTER LOOP,Plant Supply,6.0GAL ELECTRICITY BOOSTER WATER HEATER - 1100KBTU/HR SUPPLY INLET WATER NODE,6.0GAL ELECTRICITY BOOSTER WATER HEATER - 1100KBTU/HR SUPPLY OUTLET WATER NODE
   Branch,3,FULLSERVICERESTAURANT KITCHEN - 90.1-2013 SERVICE WATER BOOSTER LOOP SUPPLY BRANCH 2,FULLSERVICERESTAURANT KITCHEN - 90.1-2013 SERVICE WATER BOOSTER LOOP,Plant Supply,PIPE ADIABATIC 5 INLET WATER NODE,PIPE ADIABATIC 5 OUTLET WATER NODE
   Branch,4,FULLSERVICERESTAURANT KITCHEN - 90.1-2013 SERVICE WATER BOOSTER LOOP SUPPLY OUTLET BRANCH,FULLSERVICERESTAURANT KITCHEN - 90.1-2013 SERVICE WATER BOOSTER LOOP,Plant Supply,PIPE ADIABATIC 7 INLET WATER NODE,FULLSERVICERESTAURANT KITCHEN - 90.1-2013 SERVICE WATER BOOSTER LOOP SUPPLY OUTLET NODE
 Branch List,10,FULLSERVICERESTAURANT KITCHEN - 90.1-2013 SERVICE WATER BOOSTER LOOP DEMAND BRANCHES,FULLSERVICERESTAURANT KITCHEN - 90.1-2013 SERVICE WATER BOOSTER LOOP,Plant Demand,5
   Branch,1,FULLSERVICERESTAURANT KITCHEN - 90.1-2013 SERVICE WATER BOOSTER LOOP DEMAND INLET BRANCH,FULLSERVICERESTAURANT KITCHEN - 90.1-2013 SERVICE WATER BOOSTER LOOP,Plant Demand,FULLSERVICERESTAURANT KITCHEN - 90.1-2013 SERVICE WATER BOOSTER LOOP DEMAND INLET NODE,PIPE ADIABATIC 8 OUTLET WATER NODE
   Branch,2,FULLSERVICERESTAURANT KITCHEN - 90.1-2013 SERVICE WATER BOOSTER LOOP DEMAND BRANCH 1,FULLSERVICERESTAURANT KITCHEN - 90.1-2013 SERVICE WATER BOOSTER LOOP,Plant Demand,PIPE ADIABATIC 6 INLET WATER NODE,PIPE ADIABATIC 6 OUTLET WATER NODE
   Branch,3,FULLSERVICERESTAURANT KITCHEN - 90.1-2013 SERVICE WATER BOOSTER LOOP DEMAND BRANCH 2,FULLSERVICERESTAURANT KITCHEN - 90.1-2013 SERVICE WATER BOOSTER LOOP,Plant Demand,BOOSTER FULLSERVICERESTAURANT KITCHEN - 90.1-2013 WUC 90.91GPM AT 180F INLET WATER NODE,BOOSTER FULLSERVICERESTAURANT KITCHEN - 90.1-2013 WUC 90.91GPM AT 180F OUTLET WATER NODE
   Branch,4,FULLSERVICERESTAURANT KITCHEN - 90.1-2013 SERVICE WATER BOOSTER LOOP DEMAND BYPASS BRANCH,FULLSERVICERESTAURANT KITCHEN - 90.1-2013 SERVICE WATER BOOSTER LOOP,Plant Demand,FULLSERVICERESTAURANT KITCHEN - 90.1-2013 SERVICE WATER BOOSTER LOOP DEMAND BYPASS PIPE INLET NODE,FULLSERVICERESTAURANT KITCHEN - 90.1-2013 SERVICE WATER BOOSTER LOOP DEMAND BYPASS PIPE OUTLET NODE
   Branch,5,FULLSERVICERESTAURANT KITCHEN - 90.1-2013 SERVICE WATER BOOSTER LOOP DEMAND OUTLET BRANCH,FULLSERVICERESTAURANT KITCHEN - 90.1-2013 SERVICE WATER BOOSTER LOOP,Plant Demand,PIPE ADIABATIC 9 INLET WATER NODE,FULLSERVICERESTAURANT KITCHEN - 90.1-2013 SERVICE WATER BOOSTER LOOP DEMAND OUTLET NODE
 Branch List,11,FULLSERVICERESTAURANT KITCHEN - 90.1-2013 SERVICE WATER LOOP SUPPLY BRANCHES,FULLSERVICERESTAURANT KITCHEN - 90.1-2013 SERVICE WATER LOOP,Plant Supply,4
   Branch,1,FULLSERVICERESTAURANT KITCHEN - 90.1-2013 SERVICE WATER LOOP SUPPLY INLET BRANCH,FULLSERVICERESTAURANT KITCHEN - 90.1-2013 SERVICE WATER LOOP,Plant Supply,FULLSERVICERESTAURANT KITCHEN - 90.1-2013 SERVICE WATER LOOP SUPPLY INLET NODE,FULLSERVICERESTAURANT KITCHEN - 90.1-2013 SERVICE WATER LOOP WATER MAINS PRESSURE DRIVEN OUTLET WATER NODE
   Branch,2,FULLSERVICERESTAURANT KITCHEN - 90.1-2013 SERVICE WATER LOOP SUPPLY BRANCH 1,FULLSERVICERESTAURANT KITCHEN - 90.1-2013 SERVICE WATER LOOP,Plant Supply,5727GAL NATURALGAS WATER HEATER - 5727KBTU/HR SUPPLY INLET WATER NODE,5727GAL NATURALGAS WATER HEATER - 5727KBTU/HR SUPPLY OUTLET WATER NODE
   Branch,3,FULLSERVICERESTAURANT KITCHEN - 90.1-2013 SERVICE WATER LOOP SUPPLY BRANCH 2,FULLSERVICERESTAURANT KITCHEN - 90.1-2013 SERVICE WATER LOOP,Plant Supply,PIPE ADIABATIC 1 INLET WATER NODE,PIPE ADIABATIC 1 OUTLET WATER NODE
   Branch,4,FULLSERVICERESTAURANT KITCHEN - 90.1-2013 SERVICE WATER LOOP SUPPLY OUTLET BRANCH,FULLSERVICERESTAURANT KITCHEN - 90.1-2013 SERVICE WATER LOOP,Plant Supply,PIPE ADIABATIC 3 INLET WATER NODE,FULLSERVICERESTAURANT KITCHEN - 90.1-2013 SERVICE WATER LOOP SUPPLY OUTLET NODE
 Branch List,12,FULLSERVICERESTAURANT KITCHEN - 90.1-2013 SERVICE WATER LOOP DEMAND BRANCHES,FULLSERVICERESTAURANT KITCHEN - 90.1-2013 SERVICE WATER LOOP,Plant Demand,6
   Branch,1,FULLSERVICERESTAURANT KITCHEN - 90.1-2013 SERVICE WATER LOOP DEMAND INLET BRANCH,FULLSERVICERESTAURANT KITCHEN - 90.1-2013 SERVICE WATER LOOP,Plant Demand,FULLSERVICERESTAURANT KITCHEN - 90.1-2013 SERVICE WATER LOOP DEMAND INLET NODE,FULLSERVICERESTAURANT KITCHEN - 90.1-2013 SERVICE WATER LOOP PIPE 20.0FT OUTLET WATER NODE
   Branch,2,FULLSERVICERESTAURANT KITCHEN - 90.1-2013 SERVICE WATER LOOP DEMAND BRANCH 1,FULLSERVICERESTAURANT KITCHEN - 90.1-2013 SERVICE WATER LOOP,Plant Demand,PIPE ADIABATIC 2 INLET WATER NODE,PIPE ADIABATIC 2 OUTLET WATER NODE
   Branch,3,FULLSERVICERESTAURANT KITCHEN - 90.1-2013 SERVICE WATER LOOP DEMAND BRANCH 2,FULLSERVICERESTAURANT KITCHEN - 90.1-2013 SERVICE WATER LOOP,Plant Demand,FULLSERVICERESTAURANT KITCHEN - 90.1-2013 WUC 60.61GPM AT 140F INLET WATER NODE,FULLSERVICERESTAURANT KITCHEN - 90.1-2013 WUC 60.61GPM AT 140F OUTLET WATER NODE
   Branch,4,FULLSERVICERESTAURANT KITCHEN - 90.1-2013 SERVICE WATER LOOP DEMAND BRANCH 3,FULLSERVICERESTAURANT KITCHEN - 90.1-2013 SERVICE WATER LOOP,Plant Demand,HX FOR BOOSTER WATER HEATING DEMAND INLET WATER NODE,MAINS WATER MAKEUP FOR SWH BOOSTER OUTLET WATER NODE
   Branch,5,FULLSERVICERESTAURANT KITCHEN - 90.1-2013 SERVICE WATER LOOP DEMAND BYPASS BRANCH,FULLSERVICERESTAURANT KITCHEN - 90.1-2013 SERVICE WATER LOOP,Plant Demand,FULLSERVICERESTAURANT KITCHEN - 90.1-2013 SERVICE WATER LOOP DEMAND BYPASS PIPE INLET NODE,FULLSERVICERESTAURANT KITCHEN - 90.1-2013 SERVICE WATER LOOP DEMAND BYPASS PIPE OUTLET NODE
   Branch,6,FULLSERVICERESTAURANT KITCHEN - 90.1-2013 SERVICE WATER LOOP DEMAND OUTLET BRANCH,FULLSERVICERESTAURANT KITCHEN - 90.1-2013 SERVICE WATER LOOP,Plant Demand,PIPE ADIABATIC 4 INLET WATER NODE,FULLSERVICERESTAURANT KITCHEN - 90.1-2013 SERVICE WATER LOOP DEMAND OUTLET NODE
 Branch List,13,HOT WATER LOOP SUPPLY BRANCHES,HOT WATER LOOP,Plant Supply,4
   Branch,1,HOT WATER LOOP SUPPLY INLET BRANCH,HOT WATER LOOP,Plant Supply,HOT WATER LOOP SUPPLY INLET NODE,HOT WATER LOOP PUMP OUTLET WATER NODE
   Branch,2,HOT WATER LOOP SUPPLY BRANCH 1,HOT WATER LOOP,Plant Supply,BOILER INLET WATER NODE,BOILER OUTLET WATER NODE
   Branch,3,HOT WATER LOOP SUPPLY BRANCH 2,HOT WATER LOOP,Plant Supply,HOT WATER LOOP SUPPLY EQUIPMENT BYPASS INLET WATER NODE,HOT WATER LOOP SUPPLY EQUIPMENT BYPASS OUTLET WATER NODE
   Branch,4,HOT WATER LOOP SUPPLY OUTLET BRANCH,HOT WATER LOOP,Plant Supply,HOT WATER LOOP SUPPLY OUTLET INLET WATER NODE,HOT WATER LOOP SUPPLY OUTLET NODE
 Branch List,14,HOT WATER LOOP DEMAND BRANCHES,HOT WATER LOOP,Plant Demand,40
   Branch,1,HOT WATER LOOP DEMAND INLET BRANCH,HOT WATER LOOP,Plant Demand,HOT WATER LOOP DEMAND INLET NODE,HOT WATER LOOP DEMAND INLET OUTLET WATER NODE
   Branch,2,HOT WATER LOOP DEMAND BRANCH 1,HOT WATER LOOP,Plant Demand,HOT WATER LOOP COIL BYPASS INLET WATER NODE,HOT WATER LOOP COIL BYPASS OUTLET WATER NODE
   Branch,3,HOT WATER LOOP DEMAND BRANCH 2,HOT WATER LOOP,Plant Demand,8 ZONE VAV MAIN HTG COIL INLET WATER NODE,8 ZONE VAV MAIN HTG COIL OUTLET WATER NODE
   Branch,4,HOT WATER LOOP DEMAND BRANCH 3,HOT WATER LOOP,Plant Demand,BUILDING STORY 1 THERMALZONE REHEAT COIL INLET WATER NODE,BUILDING STORY 1 THERMALZONE REHEAT COIL OUTLET WATER NODE
   Branch,5,HOT WATER LOOP DEMAND BRANCH 4,HOT WATER LOOP,Plant Demand,BUILDING STORY 1 THERMALZONE 1 REHEAT COIL INLET WATER NODE,BUILDING STORY 1 THERMALZONE 1 REHEAT COIL OUTLET WATER NODE
   Branch,6,HOT WATER LOOP DEMAND BRANCH 5,HOT WATER LOOP,Plant Demand,BUILDING STORY 1 THERMALZONE 2 REHEAT COIL INLET WATER NODE,BUILDING STORY 1 THERMALZONE 2 REHEAT COIL OUTLET WATER NODE
   Branch,7,HOT WATER LOOP DEMAND BRANCH 6,HOT WATER LOOP,Plant Demand,BUILDING STORY 1 THERMALZONE 7 REHEAT COIL INLET WATER NODE,BUILDING STORY 1 THERMALZONE 7 REHEAT COIL OUTLET WATER NODE
   Branch,8,HOT WATER LOOP DEMAND BRANCH 7,HOT WATER LOOP,Plant Demand,BUILDING STORY 1 THERMALZONE 4 REHEAT COIL INLET WATER NODE,BUILDING STORY 1 THERMALZONE 4 REHEAT COIL OUTLET WATER NODE
   Branch,9,HOT WATER LOOP DEMAND BRANCH 8,HOT WATER LOOP,Plant Demand,BUILDING STORY 1 THERMALZONE 5 REHEAT COIL INLET WATER NODE,BUILDING STORY 1 THERMALZONE 5 REHEAT COIL OUTLET WATER NODE
   Branch,10,HOT WATER LOOP DEMAND BRANCH 9,HOT WATER LOOP,Plant Demand,BUILDING STORY 1 THERMALZONE 6 REHEAT COIL INLET WATER NODE,BUILDING STORY 1 THERMALZONE 6 REHEAT COIL OUTLET WATER NODE
   Branch,11,HOT WATER LOOP DEMAND BRANCH 10,HOT WATER LOOP,Plant Demand,BUILDING STORY 1 THERMALZONE 3 REHEAT COIL INLET WATER NODE,BUILDING STORY 1 THERMALZONE 3 REHEAT COIL OUTLET WATER NODE
   Branch,12,HOT WATER LOOP DEMAND BRANCH 11,HOT WATER LOOP,Plant Demand,8 ZONE VAV 1 MAIN HTG COIL INLET WATER NODE,8 ZONE VAV 1 MAIN HTG COIL OUTLET WATER NODE
   Branch,13,HOT WATER LOOP DEMAND BRANCH 12,HOT WATER LOOP,Plant Demand,BUILDING STORY 2 THERMALZONE 1 REHEAT COIL INLET WATER NODE,BUILDING STORY 2 THERMALZONE 1 REHEAT COIL OUTLET WATER NODE
   Branch,14,HOT WATER LOOP DEMAND BRANCH 13,HOT WATER LOOP,Plant Demand,BUILDING STORY 2 THERMALZONE 2 REHEAT COIL INLET WATER NODE,BUILDING STORY 2 THERMALZONE 2 REHEAT COIL OUTLET WATER NODE
   Branch,15,HOT WATER LOOP DEMAND BRANCH 14,HOT WATER LOOP,Plant Demand,BUILDING STORY 2 THERMALZONE 3 REHEAT COIL INLET WATER NODE,BUILDING STORY 2 THERMALZONE 3 REHEAT COIL OUTLET WATER NODE
   Branch,16,HOT WATER LOOP DEMAND BRANCH 15,HOT WATER LOOP,Plant Demand,BUILDING STORY 2 THERMALZONE 4 REHEAT COIL INLET WATER NODE,BUILDING STORY 2 THERMALZONE 4 REHEAT COIL OUTLET WATER NODE
   Branch,17,HOT WATER LOOP DEMAND BRANCH 16,HOT WATER LOOP,Plant Demand,BUILDING STORY 2 THERMALZONE 5 REHEAT COIL INLET WATER NODE,BUILDING STORY 2 THERMALZONE 5 REHEAT COIL OUTLET WATER NODE
   Branch,18,HOT WATER LOOP DEMAND BRANCH 17,HOT WATER LOOP,Plant Demand,BUILDING STORY 2 THERMALZONE 6 REHEAT COIL INLET WATER NODE,BUILDING STORY 2 THERMALZONE 6 REHEAT COIL OUTLET WATER NODE
   Branch,19,HOT WATER LOOP DEMAND BRANCH 18,HOT WATER LOOP,Plant Demand,BUILDING STORY 2 THERMALZONE 7 REHEAT COIL INLET WATER NODE,BUILDING STORY 2 THERMALZONE 7 REHEAT COIL OUTLET WATER NODE
   Branch,20,HOT WATER LOOP DEMAND BRANCH 19,HOT WATER LOOP,Plant Demand,BUILDING STORY 2 THERMALZONE REHEAT COIL INLET WATER NODE,BUILDING STORY 2 THERMALZONE REHEAT COIL OUTLET WATER NODE
   Branch,21,HOT WATER LOOP DEMAND BRANCH 20,HOT WATER LOOP,Plant Demand,8 ZONE VAV 2 MAIN HTG COIL INLET WATER NODE,8 ZONE VAV 2 MAIN HTG COIL OUTLET WATER NODE
   Branch,22,HOT WATER LOOP DEMAND BRANCH 21,HOT WATER LOOP,Plant Demand,BUILDING STORY 3 THERMALZONE 7 REHEAT COIL INLET WATER NODE,BUILDING STORY 3 THERMALZONE 7 REHEAT COIL OUTLET WATER NODE
   Branch,23,HOT WATER LOOP DEMAND BRANCH 22,HOT WATER LOOP,Plant Demand,BUILDING STORY 3 THERMALZONE 1 REHEAT COIL INLET WATER NODE,BUILDING STORY 3 THERMALZONE 1 REHEAT COIL OUTLET WATER NODE
   Branch,24,HOT WATER LOOP DEMAND BRANCH 23,HOT WATER LOOP,Plant Demand,BUILDING STORY 3 THERMALZONE 2 REHEAT COIL INLET WATER NODE,BUILDING STORY 3 THERMALZONE 2 REHEAT COIL OUTLET WATER NODE
   Branch,25,HOT WATER LOOP DEMAND BRANCH 24,HOT WATER LOOP,Plant Demand,BUILDING STORY 3 THERMALZONE 3 REHEAT COIL INLET WATER NODE,BUILDING STORY 3 THERMALZONE 3 REHEAT COIL OUTLET WATER NODE
   Branch,26,HOT WATER LOOP DEMAND BRANCH 25,HOT WATER LOOP,Plant Demand,BUILDING STORY 3 THERMALZONE 4 REHEAT COIL INLET WATER NODE,BUILDING STORY 3 THERMALZONE 4 REHEAT COIL OUTLET WATER NODE
   Branch,27,HOT WATER LOOP DEMAND BRANCH 26,HOT WATER LOOP,Plant Demand,BUILDING STORY 3 THERMALZONE 5 REHEAT COIL INLET WATER NODE,BUILDING STORY 3 THERMALZONE 5 REHEAT COIL OUTLET WATER NODE
   Branch,28,HOT WATER LOOP DEMAND BRANCH 27,HOT WATER LOOP,Plant Demand,BUILDING STORY 3 THERMALZONE 6 REHEAT COIL INLET WATER NODE,BUILDING STORY 3 THERMALZONE 6 REHEAT COIL OUTLET WATER NODE
   Branch,29,HOT WATER LOOP DEMAND BRANCH 28,HOT WATER LOOP,Plant Demand,BUILDING STORY 3 THERMALZONE REHEAT COIL INLET WATER NODE,BUILDING STORY 3 THERMALZONE REHEAT COIL OUTLET WATER NODE
   Branch,30,HOT WATER LOOP DEMAND BRANCH 29,HOT WATER LOOP,Plant Demand,8 ZONE VAV 3 MAIN HTG COIL INLET WATER NODE,8 ZONE VAV 3 MAIN HTG COIL OUTLET WATER NODE
   Branch,31,HOT WATER LOOP DEMAND BRANCH 30,HOT WATER LOOP,Plant Demand,BUILDING STORY 4 THERMALZONE REHEAT COIL INLET WATER NODE,BUILDING STORY 4 THERMALZONE REHEAT COIL OUTLET WATER NODE
   Branch,32,HOT WATER LOOP DEMAND BRANCH 31,HOT WATER LOOP,Plant Demand,BUILDING STORY 4 THERMALZONE 3 REHEAT COIL INLET WATER NODE,BUILDING STORY 4 THERMALZONE 3 REHEAT COIL OUTLET WATER NODE
   Branch,33,HOT WATER LOOP DEMAND BRANCH 32,HOT WATER LOOP,Plant Demand,BUILDING STORY 4 THERMALZONE 4 REHEAT COIL INLET WATER NODE,BUILDING STORY 4 THERMALZONE 4 REHEAT COIL OUTLET WATER NODE
   Branch,34,HOT WATER LOOP DEMAND BRANCH 33,HOT WATER LOOP,Plant Demand,BUILDING STORY 4 THERMALZONE 7 REHEAT COIL INLET WATER NODE,BUILDING STORY 4 THERMALZONE 7 REHEAT COIL OUTLET WATER NODE
   Branch,35,HOT WATER LOOP DEMAND BRANCH 34,HOT WATER LOOP,Plant Demand,BUILDING STORY 4 THERMALZONE 6 REHEAT COIL INLET WATER NODE,BUILDING STORY 4 THERMALZONE 6 REHEAT COIL OUTLET WATER NODE
   Branch,36,HOT WATER LOOP DEMAND BRANCH 35,HOT WATER LOOP,Plant Demand,BUILDING STORY 4 THERMALZONE 1 REHEAT COIL INLET WATER NODE,BUILDING STORY 4 THERMALZONE 1 REHEAT COIL OUTLET WATER NODE
   Branch,37,HOT WATER LOOP DEMAND BRANCH 36,HOT WATER LOOP,Plant Demand,BUILDING STORY 4 THERMALZONE 2 REHEAT COIL INLET WATER NODE,BUILDING STORY 4 THERMALZONE 2 REHEAT COIL OUTLET WATER NODE
   Branch,38,HOT WATER LOOP DEMAND BRANCH 37,HOT WATER LOOP,Plant Demand,BUILDING STORY 4 THERMALZONE 5 REHEAT COIL INLET WATER NODE,BUILDING STORY 4 THERMALZONE 5 REHEAT COIL OUTLET WATER NODE
   Branch,39,HOT WATER LOOP DEMAND BYPASS BRANCH,HOT WATER LOOP,Plant Demand,HOT WATER LOOP DEMAND BYPASS PIPE INLET NODE,HOT WATER LOOP DEMAND BYPASS PIPE OUTLET NODE
   Branch,40,HOT WATER LOOP DEMAND OUTLET BRANCH,HOT WATER LOOP,Plant Demand,HOT WATER LOOP DEMAND OUTLET INLET WATER NODE,HOT WATER LOOP DEMAND OUTLET NODE
 Branch List,15,OFFICE SHARED SERVICE WATER LOOP SUPPLY BRANCHES,OFFICE SHARED SERVICE WATER LOOP,Plant Supply,4
   Branch,1,OFFICE SHARED SERVICE WATER LOOP SUPPLY INLET BRANCH,OFFICE SHARED SERVICE WATER LOOP,Plant Supply,OFFICE SHARED SERVICE WATER LOOP SUPPLY INLET NODE,OFFICE SHARED SERVICE WATER LOOP CIRCULATOR PUMP OUTLET WATER NODE
   Branch,2,OFFICE SHARED SERVICE WATER LOOP SUPPLY BRANCH 1,OFFICE SHARED SERVICE WATER LOOP,Plant Supply,113GAL ELECTRICITY WATER HEATER - 113KBTU/HR SUPPLY INLET WATER NODE,113GAL ELECTRICITY WATER HEATER - 113KBTU/HR SUPPLY OUTLET WATER NODE
   Branch,3,OFFICE SHARED SERVICE WATER LOOP SUPPLY BRANCH 2,OFFICE SHARED SERVICE WATER LOOP,Plant Supply,PIPE ADIABATIC 10 INLET WATER NODE,PIPE ADIABATIC 10 OUTLET WATER NODE
   Branch,4,OFFICE SHARED SERVICE WATER LOOP SUPPLY OUTLET BRANCH,OFFICE SHARED SERVICE WATER LOOP,Plant Supply,PIPE ADIABATIC 12 INLET WATER NODE,OFFICE SHARED SERVICE WATER LOOP SUPPLY OUTLET NODE
 Branch List,16,OFFICE SHARED SERVICE WATER LOOP DEMAND BRANCHES,OFFICE SHARED SERVICE WATER LOOP,Plant Demand,5
   Branch,1,OFFICE SHARED SERVICE WATER LOOP DEMAND INLET BRANCH,OFFICE SHARED SERVICE WATER LOOP,Plant Demand,OFFICE SHARED SERVICE WATER LOOP DEMAND INLET NODE,OFFICE SHARED SERVICE WATER LOOP PIPE 887.285420147255FT OUTLET WATER NODE
   Branch,2,OFFICE SHARED SERVICE WATER LOOP DEMAND BRANCH 1,OFFICE SHARED SERVICE WATER LOOP,Plant Demand,PIPE ADIABATIC 11 INLET WATER NODE,PIPE ADIABATIC 11 OUTLET WATER NODE
   Branch,3,OFFICE SHARED SERVICE WATER LOOP DEMAND BRANCH 2,OFFICE SHARED SERVICE WATER LOOP,Plant Demand,OFFICE WHOLEBUILDING - LG OFFICE - 90.1-2013 WUC 3.15GPM AT 140F INLET WATER NODE,OFFICE WHOLEBUILDING - LG OFFICE - 90.1-2013 WUC 3.15GPM AT 140F OUTLET WATER NODE
   Branch,4,OFFICE SHARED SERVICE WATER LOOP DEMAND BYPASS BRANCH,OFFICE SHARED SERVICE WATER LOOP,Plant Demand,OFFICE SHARED SERVICE WATER LOOP DEMAND BYPASS PIPE INLET NODE,OFFICE SHARED SERVICE WATER LOOP DEMAND BYPASS PIPE OUTLET NODE
   Branch,5,OFFICE SHARED SERVICE WATER LOOP DEMAND OUTLET BRANCH,OFFICE SHARED SERVICE WATER LOOP,Plant Demand,PIPE ADIABATIC 13 INLET WATER NODE,OFFICE SHARED SERVICE WATER LOOP DEMAND OUTLET NODE
! ===============================================================
! <#Supply Air Paths>,<Number of Supply Air Paths>
 #Supply Air Paths,4
! <Supply Air Path>,<Supply Air Path Count>,<Supply Air Path Name>,<AirLoopHVAC Name>
! <#Components on Supply Air Path>,<Number of Components>
! <Supply Air Path Component>,<Component Count>,<Component Type>,<Component Name>,<AirLoopHVAC Name>
! <#Outlet Nodes on Supply Air Path Component>,<Number of Nodes>
! <Supply Air Path Component Nodes>,<Node Count>,<Component Type>,<Component Name>,<Inlet Node Name>,<Outlet Node Name>,<AirLoopHVAC Name>
 Supply Air Path,1,8 ZONE VAV 8 ZONE VAV DEMAND INLET NODE SUPPLY PATH,8 ZONE VAV
   #Components on Supply Air Path,1
   Supply Air Path Component,1,AIRLOOPHVAC:ZONESPLITTER,AIR LOOP HVAC ZONE SPLITTER 1,8 ZONE VAV
     #Outlet Nodes on Supply Air Path Component,8
     Supply Air Path Component Nodes,1,AIRLOOPHVAC:ZONESPLITTER,AIR LOOP HVAC ZONE SPLITTER 1,8 ZONE VAV DEMAND INLET NODE,BUILDING STORY 1 THERMALZONE VAV TERMINAL INLET AIR NODE,8 ZONE VAV
     Supply Air Path Component Nodes,2,AIRLOOPHVAC:ZONESPLITTER,AIR LOOP HVAC ZONE SPLITTER 1,8 ZONE VAV DEMAND INLET NODE,BUILDING STORY 1 THERMALZONE 1 VAV TERMINAL INLET AIR NODE,8 ZONE VAV
     Supply Air Path Component Nodes,3,AIRLOOPHVAC:ZONESPLITTER,AIR LOOP HVAC ZONE SPLITTER 1,8 ZONE VAV DEMAND INLET NODE,BUILDING STORY 1 THERMALZONE 2 VAV TERMINAL INLET AIR NODE,8 ZONE VAV
     Supply Air Path Component Nodes,4,AIRLOOPHVAC:ZONESPLITTER,AIR LOOP HVAC ZONE SPLITTER 1,8 ZONE VAV DEMAND INLET NODE,BUILDING STORY 1 THERMALZONE 7 VAV TERMINAL INLET AIR NODE,8 ZONE VAV
     Supply Air Path Component Nodes,5,AIRLOOPHVAC:ZONESPLITTER,AIR LOOP HVAC ZONE SPLITTER 1,8 ZONE VAV DEMAND INLET NODE,BUILDING STORY 1 THERMALZONE 4 VAV TERMINAL INLET AIR NODE,8 ZONE VAV
     Supply Air Path Component Nodes,6,AIRLOOPHVAC:ZONESPLITTER,AIR LOOP HVAC ZONE SPLITTER 1,8 ZONE VAV DEMAND INLET NODE,BUILDING STORY 1 THERMALZONE 5 VAV TERMINAL INLET AIR NODE,8 ZONE VAV
     Supply Air Path Component Nodes,7,AIRLOOPHVAC:ZONESPLITTER,AIR LOOP HVAC ZONE SPLITTER 1,8 ZONE VAV DEMAND INLET NODE,BUILDING STORY 1 THERMALZONE 6 VAV TERMINAL INLET AIR NODE,8 ZONE VAV
     Supply Air Path Component Nodes,8,AIRLOOPHVAC:ZONESPLITTER,AIR LOOP HVAC ZONE SPLITTER 1,8 ZONE VAV DEMAND INLET NODE,BUILDING STORY 1 THERMALZONE 3 VAV TERMINAL INLET AIR NODE,8 ZONE VAV
! <#Nodes on Supply Air Path>,<Number of Nodes>
! <Supply Air Path Node>,<Node Type>,<Node Count>,<Node Name>,<AirLoopHVAC Name>
#Nodes on Supply Air Path,9
   Supply Air Path Node,Inlet Node,1,8 ZONE VAV DEMAND INLET NODE,8 ZONE VAV
   Supply Air Path Node,Outlet Node,2,BUILDING STORY 1 THERMALZONE VAV TERMINAL INLET AIR NODE,8 ZONE VAV
   Supply Air Path Node,Outlet Node,3,BUILDING STORY 1 THERMALZONE 1 VAV TERMINAL INLET AIR NODE,8 ZONE VAV
   Supply Air Path Node,Outlet Node,4,BUILDING STORY 1 THERMALZONE 2 VAV TERMINAL INLET AIR NODE,8 ZONE VAV
   Supply Air Path Node,Outlet Node,5,BUILDING STORY 1 THERMALZONE 7 VAV TERMINAL INLET AIR NODE,8 ZONE VAV
   Supply Air Path Node,Outlet Node,6,BUILDING STORY 1 THERMALZONE 4 VAV TERMINAL INLET AIR NODE,8 ZONE VAV
   Supply Air Path Node,Outlet Node,7,BUILDING STORY 1 THERMALZONE 5 VAV TERMINAL INLET AIR NODE,8 ZONE VAV
   Supply Air Path Node,Outlet Node,8,BUILDING STORY 1 THERMALZONE 6 VAV TERMINAL INLET AIR NODE,8 ZONE VAV
   Supply Air Path Node,Outlet Node,9,BUILDING STORY 1 THERMALZONE 3 VAV TERMINAL INLET AIR NODE,8 ZONE VAV
 Supply Air Path,2,8 ZONE VAV 1 8 ZONE VAV 1 DEMAND INLET NODE SUPPLY PATH,8 ZONE VAV 1
   #Components on Supply Air Path,1
   Supply Air Path Component,1,AIRLOOPHVAC:ZONESPLITTER,AIR LOOP HVAC ZONE SPLITTER 2,8 ZONE VAV 1
     #Outlet Nodes on Supply Air Path Component,8
     Supply Air Path Component Nodes,1,AIRLOOPHVAC:ZONESPLITTER,AIR LOOP HVAC ZONE SPLITTER 2,8 ZONE VAV 1 DEMAND INLET NODE,BUILDING STORY 2 THERMALZONE 1 VAV TERMINAL INLET AIR NODE,8 ZONE VAV 1
     Supply Air Path Component Nodes,2,AIRLOOPHVAC:ZONESPLITTER,AIR LOOP HVAC ZONE SPLITTER 2,8 ZONE VAV 1 DEMAND INLET NODE,BUILDING STORY 2 THERMALZONE 2 VAV TERMINAL INLET AIR NODE,8 ZONE VAV 1
     Supply Air Path Component Nodes,3,AIRLOOPHVAC:ZONESPLITTER,AIR LOOP HVAC ZONE SPLITTER 2,8 ZONE VAV 1 DEMAND INLET NODE,BUILDING STORY 2 THERMALZONE 3 VAV TERMINAL INLET AIR NODE,8 ZONE VAV 1
     Supply Air Path Component Nodes,4,AIRLOOPHVAC:ZONESPLITTER,AIR LOOP HVAC ZONE SPLITTER 2,8 ZONE VAV 1 DEMAND INLET NODE,BUILDING STORY 2 THERMALZONE 4 VAV TERMINAL INLET AIR NODE,8 ZONE VAV 1
     Supply Air Path Component Nodes,5,AIRLOOPHVAC:ZONESPLITTER,AIR LOOP HVAC ZONE SPLITTER 2,8 ZONE VAV 1 DEMAND INLET NODE,BUILDING STORY 2 THERMALZONE 5 VAV TERMINAL INLET AIR NODE,8 ZONE VAV 1
     Supply Air Path Component Nodes,6,AIRLOOPHVAC:ZONESPLITTER,AIR LOOP HVAC ZONE SPLITTER 2,8 ZONE VAV 1 DEMAND INLET NODE,BUILDING STORY 2 THERMALZONE 6 VAV TERMINAL INLET AIR NODE,8 ZONE VAV 1
     Supply Air Path Component Nodes,7,AIRLOOPHVAC:ZONESPLITTER,AIR LOOP HVAC ZONE SPLITTER 2,8 ZONE VAV 1 DEMAND INLET NODE,BUILDING STORY 2 THERMALZONE 7 VAV TERMINAL INLET AIR NODE,8 ZONE VAV 1
     Supply Air Path Component Nodes,8,AIRLOOPHVAC:ZONESPLITTER,AIR LOOP HVAC ZONE SPLITTER 2,8 ZONE VAV 1 DEMAND INLET NODE,BUILDING STORY 2 THERMALZONE VAV TERMINAL INLET AIR NODE,8 ZONE VAV 1
! <#Nodes on Supply Air Path>,<Number of Nodes>
! <Supply Air Path Node>,<Node Type>,<Node Count>,<Node Name>,<AirLoopHVAC Name>
#Nodes on Supply Air Path,9
   Supply Air Path Node,Inlet Node,1,8 ZONE VAV 1 DEMAND INLET NODE,8 ZONE VAV 1
   Supply Air Path Node,Outlet Node,2,BUILDING STORY 2 THERMALZONE 1 VAV TERMINAL INLET AIR NODE,8 ZONE VAV 1
   Supply Air Path Node,Outlet Node,3,BUILDING STORY 2 THERMALZONE 2 VAV TERMINAL INLET AIR NODE,8 ZONE VAV 1
   Supply Air Path Node,Outlet Node,4,BUILDING STORY 2 THERMALZONE 3 VAV TERMINAL INLET AIR NODE,8 ZONE VAV 1
   Supply Air Path Node,Outlet Node,5,BUILDING STORY 2 THERMALZONE 4 VAV TERMINAL INLET AIR NODE,8 ZONE VAV 1
   Supply Air Path Node,Outlet Node,6,BUILDING STORY 2 THERMALZONE 5 VAV TERMINAL INLET AIR NODE,8 ZONE VAV 1
   Supply Air Path Node,Outlet Node,7,BUILDING STORY 2 THERMALZONE 6 VAV TERMINAL INLET AIR NODE,8 ZONE VAV 1
   Supply Air Path Node,Outlet Node,8,BUILDING STORY 2 THERMALZONE 7 VAV TERMINAL INLET AIR NODE,8 ZONE VAV 1
   Supply Air Path Node,Outlet Node,9,BUILDING STORY 2 THERMALZONE VAV TERMINAL INLET AIR NODE,8 ZONE VAV 1
 Supply Air Path,3,8 ZONE VAV 2 8 ZONE VAV 2 DEMAND INLET NODE SUPPLY PATH,8 ZONE VAV 2
   #Components on Supply Air Path,1
   Supply Air Path Component,1,AIRLOOPHVAC:ZONESPLITTER,AIR LOOP HVAC ZONE SPLITTER 3,8 ZONE VAV 2
     #Outlet Nodes on Supply Air Path Component,8
     Supply Air Path Component Nodes,1,AIRLOOPHVAC:ZONESPLITTER,AIR LOOP HVAC ZONE SPLITTER 3,8 ZONE VAV 2 DEMAND INLET NODE,BUILDING STORY 3 THERMALZONE 7 VAV TERMINAL INLET AIR NODE,8 ZONE VAV 2
     Supply Air Path Component Nodes,2,AIRLOOPHVAC:ZONESPLITTER,AIR LOOP HVAC ZONE SPLITTER 3,8 ZONE VAV 2 DEMAND INLET NODE,BUILDING STORY 3 THERMALZONE 1 VAV TERMINAL INLET AIR NODE,8 ZONE VAV 2
     Supply Air Path Component Nodes,3,AIRLOOPHVAC:ZONESPLITTER,AIR LOOP HVAC ZONE SPLITTER 3,8 ZONE VAV 2 DEMAND INLET NODE,BUILDING STORY 3 THERMALZONE 2 VAV TERMINAL INLET AIR NODE,8 ZONE VAV 2
     Supply Air Path Component Nodes,4,AIRLOOPHVAC:ZONESPLITTER,AIR LOOP HVAC ZONE SPLITTER 3,8 ZONE VAV 2 DEMAND INLET NODE,BUILDING STORY 3 THERMALZONE 3 VAV TERMINAL INLET AIR NODE,8 ZONE VAV 2
     Supply Air Path Component Nodes,5,AIRLOOPHVAC:ZONESPLITTER,AIR LOOP HVAC ZONE SPLITTER 3,8 ZONE VAV 2 DEMAND INLET NODE,BUILDING STORY 3 THERMALZONE 4 VAV TERMINAL INLET AIR NODE,8 ZONE VAV 2
     Supply Air Path Component Nodes,6,AIRLOOPHVAC:ZONESPLITTER,AIR LOOP HVAC ZONE SPLITTER 3,8 ZONE VAV 2 DEMAND INLET NODE,BUILDING STORY 3 THERMALZONE 5 VAV TERMINAL INLET AIR NODE,8 ZONE VAV 2
     Supply Air Path Component Nodes,7,AIRLOOPHVAC:ZONESPLITTER,AIR LOOP HVAC ZONE SPLITTER 3,8 ZONE VAV 2 DEMAND INLET NODE,BUILDING STORY 3 THERMALZONE 6 VAV TERMINAL INLET AIR NODE,8 ZONE VAV 2
     Supply Air Path Component Nodes,8,AIRLOOPHVAC:ZONESPLITTER,AIR LOOP HVAC ZONE SPLITTER 3,8 ZONE VAV 2 DEMAND INLET NODE,BUILDING STORY 3 THERMALZONE VAV TERMINAL INLET AIR NODE,8 ZONE VAV 2
! <#Nodes on Supply Air Path>,<Number of Nodes>
! <Supply Air Path Node>,<Node Type>,<Node Count>,<Node Name>,<AirLoopHVAC Name>
#Nodes on Supply Air Path,9
   Supply Air Path Node,Inlet Node,1,8 ZONE VAV 2 DEMAND INLET NODE,8 ZONE VAV 2
   Supply Air Path Node,Outlet Node,2,BUILDING STORY 3 THERMALZONE 7 VAV TERMINAL INLET AIR NODE,8 ZONE VAV 2
   Supply Air Path Node,Outlet Node,3,BUILDING STORY 3 THERMALZONE 1 VAV TERMINAL INLET AIR NODE,8 ZONE VAV 2
   Supply Air Path Node,Outlet Node,4,BUILDING STORY 3 THERMALZONE 2 VAV TERMINAL INLET AIR NODE,8 ZONE VAV 2
   Supply Air Path Node,Outlet Node,5,BUILDING STORY 3 THERMALZONE 3 VAV TERMINAL INLET AIR NODE,8 ZONE VAV 2
   Supply Air Path Node,Outlet Node,6,BUILDING STORY 3 THERMALZONE 4 VAV TERMINAL INLET AIR NODE,8 ZONE VAV 2
   Supply Air Path Node,Outlet Node,7,BUILDING STORY 3 THERMALZONE 5 VAV TERMINAL INLET AIR NODE,8 ZONE VAV 2
   Supply Air Path Node,Outlet Node,8,BUILDING STORY 3 THERMALZONE 6 VAV TERMINAL INLET AIR NODE,8 ZONE VAV 2
   Supply Air Path Node,Outlet Node,9,BUILDING STORY 3 THERMALZONE VAV TERMINAL INLET AIR NODE,8 ZONE VAV 2
 Supply Air Path,4,8 ZONE VAV 3 8 ZONE VAV 3 DEMAND INLET NODE SUPPLY PATH,8 ZONE VAV 3
   #Components on Supply Air Path,1
   Supply Air Path Component,1,AIRLOOPHVAC:ZONESPLITTER,AIR LOOP HVAC ZONE SPLITTER 4,8 ZONE VAV 3
     #Outlet Nodes on Supply Air Path Component,8
     Supply Air Path Component Nodes,1,AIRLOOPHVAC:ZONESPLITTER,AIR LOOP HVAC ZONE SPLITTER 4,8 ZONE VAV 3 DEMAND INLET NODE,BUILDING STORY 4 THERMALZONE VAV TERMINAL INLET AIR NODE,8 ZONE VAV 3
     Supply Air Path Component Nodes,2,AIRLOOPHVAC:ZONESPLITTER,AIR LOOP HVAC ZONE SPLITTER 4,8 ZONE VAV 3 DEMAND INLET NODE,BUILDING STORY 4 THERMALZONE 3 VAV TERMINAL INLET AIR NODE,8 ZONE VAV 3
     Supply Air Path Component Nodes,3,AIRLOOPHVAC:ZONESPLITTER,AIR LOOP HVAC ZONE SPLITTER 4,8 ZONE VAV 3 DEMAND INLET NODE,BUILDING STORY 4 THERMALZONE 4 VAV TERMINAL INLET AIR NODE,8 ZONE VAV 3
     Supply Air Path Component Nodes,4,AIRLOOPHVAC:ZONESPLITTER,AIR LOOP HVAC ZONE SPLITTER 4,8 ZONE VAV 3 DEMAND INLET NODE,BUILDING STORY 4 THERMALZONE 7 VAV TERMINAL INLET AIR NODE,8 ZONE VAV 3
     Supply Air Path Component Nodes,5,AIRLOOPHVAC:ZONESPLITTER,AIR LOOP HVAC ZONE SPLITTER 4,8 ZONE VAV 3 DEMAND INLET NODE,BUILDING STORY 4 THERMALZONE 6 VAV TERMINAL INLET AIR NODE,8 ZONE VAV 3
     Supply Air Path Component Nodes,6,AIRLOOPHVAC:ZONESPLITTER,AIR LOOP HVAC ZONE SPLITTER 4,8 ZONE VAV 3 DEMAND INLET NODE,BUILDING STORY 4 THERMALZONE 1 VAV TERMINAL INLET AIR NODE,8 ZONE VAV 3
     Supply Air Path Component Nodes,7,AIRLOOPHVAC:ZONESPLITTER,AIR LOOP HVAC ZONE SPLITTER 4,8 ZONE VAV 3 DEMAND INLET NODE,BUILDING STORY 4 THERMALZONE 2 VAV TERMINAL INLET AIR NODE,8 ZONE VAV 3
     Supply Air Path Component Nodes,8,AIRLOOPHVAC:ZONESPLITTER,AIR LOOP HVAC ZONE SPLITTER 4,8 ZONE VAV 3 DEMAND INLET NODE,BUILDING STORY 4 THERMALZONE 5 VAV TERMINAL INLET AIR NODE,8 ZONE VAV 3
! <#Nodes on Supply Air Path>,<Number of Nodes>
! <Supply Air Path Node>,<Node Type>,<Node Count>,<Node Name>,<AirLoopHVAC Name>
#Nodes on Supply Air Path,9
   Supply Air Path Node,Inlet Node,1,8 ZONE VAV 3 DEMAND INLET NODE,8 ZONE VAV 3
   Supply Air Path Node,Outlet Node,2,BUILDING STORY 4 THERMALZONE VAV TERMINAL INLET AIR NODE,8 ZONE VAV 3
   Supply Air Path Node,Outlet Node,3,BUILDING STORY 4 THERMALZONE 3 VAV TERMINAL INLET AIR NODE,8 ZONE VAV 3
   Supply Air Path Node,Outlet Node,4,BUILDING STORY 4 THERMALZONE 4 VAV TERMINAL INLET AIR NODE,8 ZONE VAV 3
   Supply Air Path Node,Outlet Node,5,BUILDING STORY 4 THERMALZONE 7 VAV TERMINAL INLET AIR NODE,8 ZONE VAV 3
   Supply Air Path Node,Outlet Node,6,BUILDING STORY 4 THERMALZONE 6 VAV TERMINAL INLET AIR NODE,8 ZONE VAV 3
   Supply Air Path Node,Outlet Node,7,BUILDING STORY 4 THERMALZONE 1 VAV TERMINAL INLET AIR NODE,8 ZONE VAV 3
   Supply Air Path Node,Outlet Node,8,BUILDING STORY 4 THERMALZONE 2 VAV TERMINAL INLET AIR NODE,8 ZONE VAV 3
   Supply Air Path Node,Outlet Node,9,BUILDING STORY 4 THERMALZONE 5 VAV TERMINAL INLET AIR NODE,8 ZONE VAV 3
! ===============================================================
! <#Return Air Paths>,<Number of Return Air Paths>
 #Return Air Paths,4
! <Return Air Path>,<Return Air Path Count>,<Return Air Path Name>,<AirLoopHVAC Name>
! <#Components on Return Air Path>,<Number of Components>
! <Return Air Path Component>,<Component Count>,<Component Type>,<Component Name>,<AirLoopHVAC Name>
! <#Inlet Nodes on Return Air Path Component>,<Number of Nodes>
! <Return Air Path Component Nodes>,<Node Count>,<Component Type>,<Component Name>,<Inlet Node Name>,<Outlet Node Name>,<AirLoopHVAC Name>
 Return Air Path,1,8 ZONE VAV RETURN PATH,8 ZONE VAV
   #Components on Return Air Path,1
   Return Air Path Component,1,AIRLOOPHVAC:ZONEMIXER,AIR LOOP HVAC ZONE MIXER 1,8 ZONE VAV
     #Inlet Nodes on Return Air Path Component,8
     Return Air Path Component Nodes,1,AIRLOOPHVAC:ZONEMIXER,AIR LOOP HVAC ZONE MIXER 1,BUILDING STORY 1 THERMALZONE RETURN AIR NODE,8 ZONE VAV DEMAND OUTLET NODE,8 ZONE VAV
     Return Air Path Component Nodes,2,AIRLOOPHVAC:ZONEMIXER,AIR LOOP HVAC ZONE MIXER 1,BUILDING STORY 1 THERMALZONE 1 RETURN AIR NODE,8 ZONE VAV DEMAND OUTLET NODE,8 ZONE VAV
     Return Air Path Component Nodes,3,AIRLOOPHVAC:ZONEMIXER,AIR LOOP HVAC ZONE MIXER 1,BUILDING STORY 1 THERMALZONE 2 RETURN AIR NODE,8 ZONE VAV DEMAND OUTLET NODE,8 ZONE VAV
     Return Air Path Component Nodes,4,AIRLOOPHVAC:ZONEMIXER,AIR LOOP HVAC ZONE MIXER 1,BUILDING STORY 1 THERMALZONE 7 RETURN AIR NODE,8 ZONE VAV DEMAND OUTLET NODE,8 ZONE VAV
     Return Air Path Component Nodes,5,AIRLOOPHVAC:ZONEMIXER,AIR LOOP HVAC ZONE MIXER 1,BUILDING STORY 1 THERMALZONE 4 RETURN AIR NODE,8 ZONE VAV DEMAND OUTLET NODE,8 ZONE VAV
     Return Air Path Component Nodes,6,AIRLOOPHVAC:ZONEMIXER,AIR LOOP HVAC ZONE MIXER 1,BUILDING STORY 1 THERMALZONE 5 RETURN AIR NODE,8 ZONE VAV DEMAND OUTLET NODE,8 ZONE VAV
     Return Air Path Component Nodes,7,AIRLOOPHVAC:ZONEMIXER,AIR LOOP HVAC ZONE MIXER 1,BUILDING STORY 1 THERMALZONE 6 RETURN AIR NODE,8 ZONE VAV DEMAND OUTLET NODE,8 ZONE VAV
     Return Air Path Component Nodes,8,AIRLOOPHVAC:ZONEMIXER,AIR LOOP HVAC ZONE MIXER 1,BUILDING STORY 1 THERMALZONE 3 RETURN AIR NODE,8 ZONE VAV DEMAND OUTLET NODE,8 ZONE VAV
! <#Nodes on Return Air Path>,<Number of Nodes>
! <Return Air Path Node>,<Node Type>,<Node Count>,<Node Name>,<AirLoopHVAC Name>
   #Nodes on Return Air Path,9
   Return Air Path Node,Outlet Node,1,8 ZONE VAV DEMAND OUTLET NODE,8 ZONE VAV
   Return Air Path Node,Inlet Node,2,BUILDING STORY 1 THERMALZONE RETURN AIR NODE,8 ZONE VAV
   Return Air Path Node,Inlet Node,3,BUILDING STORY 1 THERMALZONE 1 RETURN AIR NODE,8 ZONE VAV
   Return Air Path Node,Inlet Node,4,BUILDING STORY 1 THERMALZONE 2 RETURN AIR NODE,8 ZONE VAV
   Return Air Path Node,Inlet Node,5,BUILDING STORY 1 THERMALZONE 7 RETURN AIR NODE,8 ZONE VAV
   Return Air Path Node,Inlet Node,6,BUILDING STORY 1 THERMALZONE 4 RETURN AIR NODE,8 ZONE VAV
   Return Air Path Node,Inlet Node,7,BUILDING STORY 1 THERMALZONE 5 RETURN AIR NODE,8 ZONE VAV
   Return Air Path Node,Inlet Node,8,BUILDING STORY 1 THERMALZONE 6 RETURN AIR NODE,8 ZONE VAV
   Return Air Path Node,Inlet Node,9,BUILDING STORY 1 THERMALZONE 3 RETURN AIR NODE,8 ZONE VAV
 Return Air Path,2,8 ZONE VAV 1 RETURN PATH,8 ZONE VAV 1
   #Components on Return Air Path,1
   Return Air Path Component,1,AIRLOOPHVAC:ZONEMIXER,AIR LOOP HVAC ZONE MIXER 2,8 ZONE VAV 1
     #Inlet Nodes on Return Air Path Component,8
     Return Air Path Component Nodes,1,AIRLOOPHVAC:ZONEMIXER,AIR LOOP HVAC ZONE MIXER 2,BUILDING STORY 2 THERMALZONE 1 RETURN AIR NODE,8 ZONE VAV 1 DEMAND OUTLET NODE,8 ZONE VAV 1
     Return Air Path Component Nodes,2,AIRLOOPHVAC:ZONEMIXER,AIR LOOP HVAC ZONE MIXER 2,BUILDING STORY 2 THERMALZONE 2 RETURN AIR NODE,8 ZONE VAV 1 DEMAND OUTLET NODE,8 ZONE VAV 1
     Return Air Path Component Nodes,3,AIRLOOPHVAC:ZONEMIXER,AIR LOOP HVAC ZONE MIXER 2,BUILDING STORY 2 THERMALZONE 3 RETURN AIR NODE,8 ZONE VAV 1 DEMAND OUTLET NODE,8 ZONE VAV 1
     Return Air Path Component Nodes,4,AIRLOOPHVAC:ZONEMIXER,AIR LOOP HVAC ZONE MIXER 2,BUILDING STORY 2 THERMALZONE 4 RETURN AIR NODE,8 ZONE VAV 1 DEMAND OUTLET NODE,8 ZONE VAV 1
     Return Air Path Component Nodes,5,AIRLOOPHVAC:ZONEMIXER,AIR LOOP HVAC ZONE MIXER 2,BUILDING STORY 2 THERMALZONE 5 RETURN AIR NODE,8 ZONE VAV 1 DEMAND OUTLET NODE,8 ZONE VAV 1
     Return Air Path Component Nodes,6,AIRLOOPHVAC:ZONEMIXER,AIR LOOP HVAC ZONE MIXER 2,BUILDING STORY 2 THERMALZONE 6 RETURN AIR NODE,8 ZONE VAV 1 DEMAND OUTLET NODE,8 ZONE VAV 1
     Return Air Path Component Nodes,7,AIRLOOPHVAC:ZONEMIXER,AIR LOOP HVAC ZONE MIXER 2,BUILDING STORY 2 THERMALZONE 7 RETURN AIR NODE,8 ZONE VAV 1 DEMAND OUTLET NODE,8 ZONE VAV 1
     Return Air Path Component Nodes,8,AIRLOOPHVAC:ZONEMIXER,AIR LOOP HVAC ZONE MIXER 2,BUILDING STORY 2 THERMALZONE RETURN AIR NODE,8 ZONE VAV 1 DEMAND OUTLET NODE,8 ZONE VAV 1
! <#Nodes on Return Air Path>,<Number of Nodes>
! <Return Air Path Node>,<Node Type>,<Node Count>,<Node Name>,<AirLoopHVAC Name>
   #Nodes on Return Air Path,9
   Return Air Path Node,Outlet Node,1,8 ZONE VAV 1 DEMAND OUTLET NODE,8 ZONE VAV 1
   Return Air Path Node,Inlet Node,2,BUILDING STORY 2 THERMALZONE 1 RETURN AIR NODE,8 ZONE VAV 1
   Return Air Path Node,Inlet Node,3,BUILDING STORY 2 THERMALZONE 2 RETURN AIR NODE,8 ZONE VAV 1
   Return Air Path Node,Inlet Node,4,BUILDING STORY 2 THERMALZONE 3 RETURN AIR NODE,8 ZONE VAV 1
   Return Air Path Node,Inlet Node,5,BUILDING STORY 2 THERMALZONE 4 RETURN AIR NODE,8 ZONE VAV 1
   Return Air Path Node,Inlet Node,6,BUILDING STORY 2 THERMALZONE 5 RETURN AIR NODE,8 ZONE VAV 1
   Return Air Path Node,Inlet Node,7,BUILDING STORY 2 THERMALZONE 6 RETURN AIR NODE,8 ZONE VAV 1
   Return Air Path Node,Inlet Node,8,BUILDING STORY 2 THERMALZONE 7 RETURN AIR NODE,8 ZONE VAV 1
   Return Air Path Node,Inlet Node,9,BUILDING STORY 2 THERMALZONE RETURN AIR NODE,8 ZONE VAV 1
 Return Air Path,3,8 ZONE VAV 2 RETURN PATH,8 ZONE VAV 2
   #Components on Return Air Path,1
   Return Air Path Component,1,AIRLOOPHVAC:ZONEMIXER,AIR LOOP HVAC ZONE MIXER 3,8 ZONE VAV 2
     #Inlet Nodes on Return Air Path Component,8
     Return Air Path Component Nodes,1,AIRLOOPHVAC:ZONEMIXER,AIR LOOP HVAC ZONE MIXER 3,BUILDING STORY 3 THERMALZONE 7 RETURN AIR NODE,8 ZONE VAV 2 DEMAND OUTLET NODE,8 ZONE VAV 2
     Return Air Path Component Nodes,2,AIRLOOPHVAC:ZONEMIXER,AIR LOOP HVAC ZONE MIXER 3,BUILDING STORY 3 THERMALZONE 1 RETURN AIR NODE,8 ZONE VAV 2 DEMAND OUTLET NODE,8 ZONE VAV 2
     Return Air Path Component Nodes,3,AIRLOOPHVAC:ZONEMIXER,AIR LOOP HVAC ZONE MIXER 3,BUILDING STORY 3 THERMALZONE 2 RETURN AIR NODE,8 ZONE VAV 2 DEMAND OUTLET NODE,8 ZONE VAV 2
     Return Air Path Component Nodes,4,AIRLOOPHVAC:ZONEMIXER,AIR LOOP HVAC ZONE MIXER 3,BUILDING STORY 3 THERMALZONE 3 RETURN AIR NODE,8 ZONE VAV 2 DEMAND OUTLET NODE,8 ZONE VAV 2
     Return Air Path Component Nodes,5,AIRLOOPHVAC:ZONEMIXER,AIR LOOP HVAC ZONE MIXER 3,BUILDING STORY 3 THERMALZONE 4 RETURN AIR NODE,8 ZONE VAV 2 DEMAND OUTLET NODE,8 ZONE VAV 2
     Return Air Path Component Nodes,6,AIRLOOPHVAC:ZONEMIXER,AIR LOOP HVAC ZONE MIXER 3,BUILDING STORY 3 THERMALZONE 5 RETURN AIR NODE,8 ZONE VAV 2 DEMAND OUTLET NODE,8 ZONE VAV 2
     Return Air Path Component Nodes,7,AIRLOOPHVAC:ZONEMIXER,AIR LOOP HVAC ZONE MIXER 3,BUILDING STORY 3 THERMALZONE 6 RETURN AIR NODE,8 ZONE VAV 2 DEMAND OUTLET NODE,8 ZONE VAV 2
     Return Air Path Component Nodes,8,AIRLOOPHVAC:ZONEMIXER,AIR LOOP HVAC ZONE MIXER 3,BUILDING STORY 3 THERMALZONE RETURN AIR NODE,8 ZONE VAV 2 DEMAND OUTLET NODE,8 ZONE VAV 2
! <#Nodes on Return Air Path>,<Number of Nodes>
! <Return Air Path Node>,<Node Type>,<Node Count>,<Node Name>,<AirLoopHVAC Name>
   #Nodes on Return Air Path,9
   Return Air Path Node,Outlet Node,1,8 ZONE VAV 2 DEMAND OUTLET NODE,8 ZONE VAV 2
   Return Air Path Node,Inlet Node,2,BUILDING STORY 3 THERMALZONE 7 RETURN AIR NODE,8 ZONE VAV 2
   Return Air Path Node,Inlet Node,3,BUILDING STORY 3 THERMALZONE 1 RETURN AIR NODE,8 ZONE VAV 2
   Return Air Path Node,Inlet Node,4,BUILDING STORY 3 THERMALZONE 2 RETURN AIR NODE,8 ZONE VAV 2
   Return Air Path Node,Inlet Node,5,BUILDING STORY 3 THERMALZONE 3 RETURN AIR NODE,8 ZONE VAV 2
   Return Air Path Node,Inlet Node,6,BUILDING STORY 3 THERMALZONE 4 RETURN AIR NODE,8 ZONE VAV 2
   Return Air Path Node,Inlet Node,7,BUILDING STORY 3 THERMALZONE 5 RETURN AIR NODE,8 ZONE VAV 2
   Return Air Path Node,Inlet Node,8,BUILDING STORY 3 THERMALZONE 6 RETURN AIR NODE,8 ZONE VAV 2
   Return Air Path Node,Inlet Node,9,BUILDING STORY 3 THERMALZONE RETURN AIR NODE,8 ZONE VAV 2
 Return Air Path,4,8 ZONE VAV 3 RETURN PATH,8 ZONE VAV 3
   #Components on Return Air Path,1
   Return Air Path Component,1,AIRLOOPHVAC:ZONEMIXER,AIR LOOP HVAC ZONE MIXER 4,8 ZONE VAV 3
     #Inlet Nodes on Return Air Path Component,8
     Return Air Path Component Nodes,1,AIRLOOPHVAC:ZONEMIXER,AIR LOOP HVAC ZONE MIXER 4,BUILDING STORY 4 THERMALZONE RETURN AIR NODE,8 ZONE VAV 3 DEMAND OUTLET NODE,8 ZONE VAV 3
     Return Air Path Component Nodes,2,AIRLOOPHVAC:ZONEMIXER,AIR LOOP HVAC ZONE MIXER 4,BUILDING STORY 4 THERMALZONE 3 RETURN AIR NODE,8 ZONE VAV 3 DEMAND OUTLET NODE,8 ZONE VAV 3
     Return Air Path Component Nodes,3,AIRLOOPHVAC:ZONEMIXER,AIR LOOP HVAC ZONE MIXER 4,BUILDING STORY 4 THERMALZONE 4 RETURN AIR NODE,8 ZONE VAV 3 DEMAND OUTLET NODE,8 ZONE VAV 3
     Return Air Path Component Nodes,4,AIRLOOPHVAC:ZONEMIXER,AIR LOOP HVAC ZONE MIXER 4,BUILDING STORY 4 THERMALZONE 7 RETURN AIR NODE,8 ZONE VAV 3 DEMAND OUTLET NODE,8 ZONE VAV 3
     Return Air Path Component Nodes,5,AIRLOOPHVAC:ZONEMIXER,AIR LOOP HVAC ZONE MIXER 4,BUILDING STORY 4 THERMALZONE 6 RETURN AIR NODE,8 ZONE VAV 3 DEMAND OUTLET NODE,8 ZONE VAV 3
     Return Air Path Component Nodes,6,AIRLOOPHVAC:ZONEMIXER,AIR LOOP HVAC ZONE MIXER 4,BUILDING STORY 4 THERMALZONE 1 RETURN AIR NODE,8 ZONE VAV 3 DEMAND OUTLET NODE,8 ZONE VAV 3
     Return Air Path Component Nodes,7,AIRLOOPHVAC:ZONEMIXER,AIR LOOP HVAC ZONE MIXER 4,BUILDING STORY 4 THERMALZONE 2 RETURN AIR NODE,8 ZONE VAV 3 DEMAND OUTLET NODE,8 ZONE VAV 3
     Return Air Path Component Nodes,8,AIRLOOPHVAC:ZONEMIXER,AIR LOOP HVAC ZONE MIXER 4,BUILDING STORY 4 THERMALZONE 5 RETURN AIR NODE,8 ZONE VAV 3 DEMAND OUTLET NODE,8 ZONE VAV 3
! <#Nodes on Return Air Path>,<Number of Nodes>
! <Return Air Path Node>,<Node Type>,<Node Count>,<Node Name>,<AirLoopHVAC Name>
   #Nodes on Return Air Path,9
   Return Air Path Node,Outlet Node,1,8 ZONE VAV 3 DEMAND OUTLET NODE,8 ZONE VAV 3
   Return Air Path Node,Inlet Node,2,BUILDING STORY 4 THERMALZONE RETURN AIR NODE,8 ZONE VAV 3
   Return Air Path Node,Inlet Node,3,BUILDING STORY 4 THERMALZONE 3 RETURN AIR NODE,8 ZONE VAV 3
   Return Air Path Node,Inlet Node,4,BUILDING STORY 4 THERMALZONE 4 RETURN AIR NODE,8 ZONE VAV 3
   Return Air Path Node,Inlet Node,5,BUILDING STORY 4 THERMALZONE 7 RETURN AIR NODE,8 ZONE VAV 3
   Return Air Path Node,Inlet Node,6,BUILDING STORY 4 THERMALZONE 6 RETURN AIR NODE,8 ZONE VAV 3
   Return Air Path Node,Inlet Node,7,BUILDING STORY 4 THERMALZONE 1 RETURN AIR NODE,8 ZONE VAV 3
   Return Air Path Node,Inlet Node,8,BUILDING STORY 4 THERMALZONE 2 RETURN AIR NODE,8 ZONE VAV 3
   Return Air Path Node,Inlet Node,9,BUILDING STORY 4 THERMALZONE 5 RETURN AIR NODE,8 ZONE VAV 3
! ===============================================================
! #Outdoor Air Nodes,<Number of Outdoor Air Nodes>
 #Outdoor Air Nodes,5
! <Outdoor Air Node>,<NodeNumber>,<Node Name>
 Outdoor Air Node,314,8 ZONE VAV OUTDOOR AIR NODE
 Outdoor Air Node,315,8 ZONE VAV 1 OUTDOOR AIR NODE
 Outdoor Air Node,316,8 ZONE VAV 2 OUTDOOR AIR NODE
 Outdoor Air Node,317,8 ZONE VAV 3 OUTDOOR AIR NODE
 Outdoor Air Node,318,MODEL OUTDOOR AIR NODE
! ===============================================================
! <#Component Sets>,<Number of Component Sets>
 #Component Sets,180
! <Component Set>,<Component Set Count>,<Parent Object Type>,<Parent Object Name>,<Component Type>,<Component Name>,<Inlet Node ID>,<Outlet Node ID>,<Description>
 Component Set,1,BRANCH,8 ZONE VAV MAIN BRANCH,AIRLOOPHVAC:OUTDOORAIRSYSTEM,8 ZONE VAV OA SYSTEM,8 ZONE VAV SUPPLY INLET NODE,8 ZONE VAV MIXED AIR NODE,Air Nodes
 Component Set,2,BRANCH,8 ZONE VAV MAIN BRANCH,COIL:COOLING:WATER,8 ZONE VAV CLG COIL,8 ZONE VAV MIXED AIR NODE,8 ZONE VAV CLG COIL OUTLET AIR NODE,Air Nodes
 Component Set,3,BRANCH,8 ZONE VAV MAIN BRANCH,COIL:HEATING:WATER,8 ZONE VAV MAIN HTG COIL,8 ZONE VAV CLG COIL OUTLET AIR NODE,8 ZONE VAV MAIN HTG COIL OUTLET AIR NODE,Air Nodes
 Component Set,4,BRANCH,8 ZONE VAV MAIN BRANCH,FAN:VARIABLEVOLUME,8 ZONE VAV FAN,8 ZONE VAV MAIN HTG COIL OUTLET AIR NODE,8 ZONE VAV SUPPLY OUTLET NODE,Air Nodes
 Component Set,5,BRANCH,8 ZONE VAV 1 MAIN BRANCH,AIRLOOPHVAC:OUTDOORAIRSYSTEM,8 ZONE VAV 1 OA SYSTEM,8 ZONE VAV 1 SUPPLY INLET NODE,8 ZONE VAV 1 MIXED AIR NODE,Air Nodes
 Component Set,6,BRANCH,8 ZONE VAV 1 MAIN BRANCH,COIL:COOLING:WATER,8 ZONE VAV 1 CLG COIL,8 ZONE VAV 1 MIXED AIR NODE,8 ZONE VAV 1 CLG COIL OUTLET AIR NODE,Air Nodes
 Component Set,7,BRANCH,8 ZONE VAV 1 MAIN BRANCH,COIL:HEATING:WATER,8 ZONE VAV 1 MAIN HTG COIL,8 ZONE VAV 1 CLG COIL OUTLET AIR NODE,8 ZONE VAV 1 MAIN HTG COIL OUTLET AIR NODE,Air Nodes
 Component Set,8,BRANCH,8 ZONE VAV 1 MAIN BRANCH,FAN:VARIABLEVOLUME,8 ZONE VAV 1 FAN,8 ZONE VAV 1 MAIN HTG COIL OUTLET AIR NODE,8 ZONE VAV 1 SUPPLY OUTLET NODE,Air Nodes
 Component Set,9,BRANCH,8 ZONE VAV 2 MAIN BRANCH,AIRLOOPHVAC:OUTDOORAIRSYSTEM,8 ZONE VAV 2 OA SYSTEM,8 ZONE VAV 2 SUPPLY INLET NODE,8 ZONE VAV 2 MIXED AIR NODE,Air Nodes
 Component Set,10,BRANCH,8 ZONE VAV 2 MAIN BRANCH,COIL:COOLING:WATER,8 ZONE VAV 2 CLG COIL,8 ZONE VAV 2 MIXED AIR NODE,8 ZONE VAV 2 CLG COIL OUTLET AIR NODE,Air Nodes
 Component Set,11,BRANCH,8 ZONE VAV 2 MAIN BRANCH,COIL:HEATING:WATER,8 ZONE VAV 2 MAIN HTG COIL,8 ZONE VAV 2 CLG COIL OUTLET AIR NODE,8 ZONE VAV 2 MAIN HTG COIL OUTLET AIR NODE,Air Nodes
 Component Set,12,BRANCH,8 ZONE VAV 2 MAIN BRANCH,FAN:VARIABLEVOLUME,8 ZONE VAV 2 FAN,8 ZONE VAV 2 MAIN HTG COIL OUTLET AIR NODE,8 ZONE VAV 2 SUPPLY OUTLET NODE,Air Nodes
 Component Set,13,BRANCH,8 ZONE VAV 3 MAIN BRANCH,AIRLOOPHVAC:OUTDOORAIRSYSTEM,8 ZONE VAV 3 OA SYSTEM,8 ZONE VAV 3 SUPPLY INLET NODE,8 ZONE VAV 3 MIXED AIR NODE,Air Nodes
 Component Set,14,BRANCH,8 ZONE VAV 3 MAIN BRANCH,COIL:COOLING:WATER,8 ZONE VAV 3 CLG COIL,8 ZONE VAV 3 MIXED AIR NODE,8 ZONE VAV 3 CLG COIL OUTLET AIR NODE,Air Nodes
 Component Set,15,BRANCH,8 ZONE VAV 3 MAIN BRANCH,COIL:HEATING:WATER,8 ZONE VAV 3 MAIN HTG COIL,8 ZONE VAV 3 CLG COIL OUTLET AIR NODE,8 ZONE VAV 3 MAIN HTG COIL OUTLET AIR NODE,Air Nodes
 Component Set,16,BRANCH,8 ZONE VAV 3 MAIN BRANCH,FAN:VARIABLEVOLUME,8 ZONE VAV 3 FAN,8 ZONE VAV 3 MAIN HTG COIL OUTLET AIR NODE,8 ZONE VAV 3 SUPPLY OUTLET NODE,Air Nodes
 Component Set,17,BRANCH,CHILLED WATER LOOP SUPPLY INLET BRANCH,PUMP:CONSTANTSPEED,CHILLED WATER LOOP PRIMARY PUMP,CHILLED WATER LOOP SUPPLY INLET NODE,CHILLED WATER LOOP PRIMARY PUMP OUTLET WATER NODE,Water Nodes
 Component Set,18,BRANCH,CHILLED WATER LOOP SUPPLY BRANCH 1,CHILLER:ELECTRIC:EIR,90.1-2013 WATERCOOLED  ROTARY SCREW CHILLER 0,90.1-2013 WATERCOOLED  ROTARY SCREW CHILLER 0 SUPPLY INLET WATER NODE,90.1-2013 WATERCOOLED  ROTARY SCREW CHILLER 0 SUPPLY OUTLET WATER NODE,Chilled Water Nodes
[...]
 Non-Parent Node Connection,BUILDING STORY 2 THERMALZONE 6 VAV TERMINAL DAMPER OUTLET,AIRTERMINAL:SINGLEDUCT:VAV:REHEAT,BUILDING STORY 2 THERMALZONE 6 VAV TERMINAL,Outlet,1
 Non-Parent Node Connection,BUILDING STORY 2 THERMALZONE 6 VAV TERMINAL INLET AIR NODE,AIRTERMINAL:SINGLEDUCT:VAV:REHEAT,BUILDING STORY 2 THERMALZONE 6 VAV TERMINAL,Inlet,1
 Non-Parent Node Connection,BUILDING STORY 2 THERMALZONE 7 VAV TERMINAL DAMPER OUTLET,AIRTERMINAL:SINGLEDUCT:VAV:REHEAT,BUILDING STORY 2 THERMALZONE 7 VAV TERMINAL,Outlet,1
 Non-Parent Node Connection,BUILDING STORY 2 THERMALZONE 7 VAV TERMINAL INLET AIR NODE,AIRTERMINAL:SINGLEDUCT:VAV:REHEAT,BUILDING STORY 2 THERMALZONE 7 VAV TERMINAL,Inlet,1
 Non-Parent Node Connection,BUILDING STORY 3 THERMALZONE VAV TERMINAL DAMPER OUTLET,AIRTERMINAL:SINGLEDUCT:VAV:REHEAT,BUILDING STORY 3 THERMALZONE VAV TERMINAL,Outlet,1
 Non-Parent Node Connection,BUILDING STORY 3 THERMALZONE VAV TERMINAL INLET AIR NODE,AIRTERMINAL:SINGLEDUCT:VAV:REHEAT,BUILDING STORY 3 THERMALZONE VAV TERMINAL,Inlet,1
 Non-Parent Node Connection,BUILDING STORY 3 THERMALZONE 1 VAV TERMINAL DAMPER OUTLET,AIRTERMINAL:SINGLEDUCT:VAV:REHEAT,BUILDING STORY 3 THERMALZONE 1 VAV TERMINAL,Outlet,1
 Non-Parent Node Connection,BUILDING STORY 3 THERMALZONE 1 VAV TERMINAL INLET AIR NODE,AIRTERMINAL:SINGLEDUCT:VAV:REHEAT,BUILDING STORY 3 THERMALZONE 1 VAV TERMINAL,Inlet,1
 Non-Parent Node Connection,BUILDING STORY 3 THERMALZONE 2 VAV TERMINAL DAMPER OUTLET,AIRTERMINAL:SINGLEDUCT:VAV:REHEAT,BUILDING STORY 3 THERMALZONE 2 VAV TERMINAL,Outlet,1
 Non-Parent Node Connection,BUILDING STORY 3 THERMALZONE 2 VAV TERMINAL INLET AIR NODE,AIRTERMINAL:SINGLEDUCT:VAV:REHEAT,BUILDING STORY 3 THERMALZONE 2 VAV TERMINAL,Inlet,1
 Non-Parent Node Connection,BUILDING STORY 3 THERMALZONE 3 VAV TERMINAL DAMPER OUTLET,AIRTERMINAL:SINGLEDUCT:VAV:REHEAT,BUILDING STORY 3 THERMALZONE 3 VAV TERMINAL,Outlet,1
 Non-Parent Node Connection,BUILDING STORY 3 THERMALZONE 3 VAV TERMINAL INLET AIR NODE,AIRTERMINAL:SINGLEDUCT:VAV:REHEAT,BUILDING STORY 3 THERMALZONE 3 VAV TERMINAL,Inlet,1
 Non-Parent Node Connection,BUILDING STORY 3 THERMALZONE 4 VAV TERMINAL DAMPER OUTLET,AIRTERMINAL:SINGLEDUCT:VAV:REHEAT,BUILDING STORY 3 THERMALZONE 4 VAV TERMINAL,Outlet,1
 Non-Parent Node Connection,BUILDING STORY 3 THERMALZONE 4 VAV TERMINAL INLET AIR NODE,AIRTERMINAL:SINGLEDUCT:VAV:REHEAT,BUILDING STORY 3 THERMALZONE 4 VAV TERMINAL,Inlet,1
 Non-Parent Node Connection,BUILDING STORY 3 THERMALZONE 5 VAV TERMINAL DAMPER OUTLET,AIRTERMINAL:SINGLEDUCT:VAV:REHEAT,BUILDING STORY 3 THERMALZONE 5 VAV TERMINAL,Outlet,1
 Non-Parent Node Connection,BUILDING STORY 3 THERMALZONE 5 VAV TERMINAL INLET AIR NODE,AIRTERMINAL:SINGLEDUCT:VAV:REHEAT,BUILDING STORY 3 THERMALZONE 5 VAV TERMINAL,Inlet,1
 Non-Parent Node Connection,BUILDING STORY 3 THERMALZONE 6 VAV TERMINAL DAMPER OUTLET,AIRTERMINAL:SINGLEDUCT:VAV:REHEAT,BUILDING STORY 3 THERMALZONE 6 VAV TERMINAL,Outlet,1
 Non-Parent Node Connection,BUILDING STORY 3 THERMALZONE 6 VAV TERMINAL INLET AIR NODE,AIRTERMINAL:SINGLEDUCT:VAV:REHEAT,BUILDING STORY 3 THERMALZONE 6 VAV TERMINAL,Inlet,1
 Non-Parent Node Connection,BUILDING STORY 3 THERMALZONE 7 VAV TERMINAL DAMPER OUTLET,AIRTERMINAL:SINGLEDUCT:VAV:REHEAT,BUILDING STORY 3 THERMALZONE 7 VAV TERMINAL,Outlet,1
 Non-Parent Node Connection,BUILDING STORY 3 THERMALZONE 7 VAV TERMINAL INLET AIR NODE,AIRTERMINAL:SINGLEDUCT:VAV:REHEAT,BUILDING STORY 3 THERMALZONE 7 VAV TERMINAL,Inlet,1
 Non-Parent Node Connection,BUILDING STORY 4 THERMALZONE VAV TERMINAL DAMPER OUTLET,AIRTERMINAL:SINGLEDUCT:VAV:REHEAT,BUILDING STORY 4 THERMALZONE VAV TERMINAL,Outlet,1
 Non-Parent Node Connection,BUILDING STORY 4 THERMALZONE VAV TERMINAL INLET AIR NODE,AIRTERMINAL:SINGLEDUCT:VAV:REHEAT,BUILDING STORY 4 THERMALZONE VAV TERMINAL,Inlet,1
 Non-Parent Node Connection,BUILDING STORY 4 THERMALZONE 1 VAV TERMINAL DAMPER OUTLET,AIRTERMINAL:SINGLEDUCT:VAV:REHEAT,BUILDING STORY 4 THERMALZONE 1 VAV TERMINAL,Outlet,1
 Non-Parent Node Connection,BUILDING STORY 4 THERMALZONE 1 VAV TERMINAL INLET AIR NODE,AIRTERMINAL:SINGLEDUCT:VAV:REHEAT,BUILDING STORY 4 THERMALZONE 1 VAV TERMINAL,Inlet,1
 Non-Parent Node Connection,BUILDING STORY 4 THERMALZONE 2 VAV TERMINAL DAMPER OUTLET,AIRTERMINAL:SINGLEDUCT:VAV:REHEAT,BUILDING STORY 4 THERMALZONE 2 VAV TERMINAL,Outlet,1
 Non-Parent Node Connection,BUILDING STORY 4 THERMALZONE 2 VAV TERMINAL INLET AIR NODE,AIRTERMINAL:SINGLEDUCT:VAV:REHEAT,BUILDING STORY 4 THERMALZONE 2 VAV TERMINAL,Inlet,1
 Non-Parent Node Connection,BUILDING STORY 4 THERMALZONE 3 VAV TERMINAL DAMPER OUTLET,AIRTERMINAL:SINGLEDUCT:VAV:REHEAT,BUILDING STORY 4 THERMALZONE 3 VAV TERMINAL,Outlet,1
 Non-Parent Node Connection,BUILDING STORY 4 THERMALZONE 3 VAV TERMINAL INLET AIR NODE,AIRTERMINAL:SINGLEDUCT:VAV:REHEAT,BUILDING STORY 4 THERMALZONE 3 VAV TERMINAL,Inlet,1
 Non-Parent Node Connection,BUILDING STORY 4 THERMALZONE 4 VAV TERMINAL DAMPER OUTLET,AIRTERMINAL:SINGLEDUCT:VAV:REHEAT,BUILDING STORY 4 THERMALZONE 4 VAV TERMINAL,Outlet,1
 Non-Parent Node Connection,BUILDING STORY 4 THERMALZONE 4 VAV TERMINAL INLET AIR NODE,AIRTERMINAL:SINGLEDUCT:VAV:REHEAT,BUILDING STORY 4 THERMALZONE 4 VAV TERMINAL,Inlet,1
 Non-Parent Node Connection,BUILDING STORY 4 THERMALZONE 5 VAV TERMINAL DAMPER OUTLET,AIRTERMINAL:SINGLEDUCT:VAV:REHEAT,BUILDING STORY 4 THERMALZONE 5 VAV TERMINAL,Outlet,1
 Non-Parent Node Connection,BUILDING STORY 4 THERMALZONE 5 VAV TERMINAL INLET AIR NODE,AIRTERMINAL:SINGLEDUCT:VAV:REHEAT,BUILDING STORY 4 THERMALZONE 5 VAV TERMINAL,Inlet,1
 Non-Parent Node Connection,BUILDING STORY 4 THERMALZONE 6 VAV TERMINAL DAMPER OUTLET,AIRTERMINAL:SINGLEDUCT:VAV:REHEAT,BUILDING STORY 4 THERMALZONE 6 VAV TERMINAL,Outlet,1
 Non-Parent Node Connection,BUILDING STORY 4 THERMALZONE 6 VAV TERMINAL INLET AIR NODE,AIRTERMINAL:SINGLEDUCT:VAV:REHEAT,BUILDING STORY 4 THERMALZONE 6 VAV TERMINAL,Inlet,1
 Non-Parent Node Connection,BUILDING STORY 4 THERMALZONE 7 VAV TERMINAL DAMPER OUTLET,AIRTERMINAL:SINGLEDUCT:VAV:REHEAT,BUILDING STORY 4 THERMALZONE 7 VAV TERMINAL,Outlet,1
 Non-Parent Node Connection,BUILDING STORY 4 THERMALZONE 7 VAV TERMINAL INLET AIR NODE,AIRTERMINAL:SINGLEDUCT:VAV:REHEAT,BUILDING STORY 4 THERMALZONE 7 VAV TERMINAL,Inlet,1
 Non-Parent Node Connection,8 ZONE VAV CLG COIL OUTLET AIR NODE,CONTROLLER:WATERCOIL,8 ZONE VAV CLG COIL CONTROLLER,Sensor,1
 Non-Parent Node Connection,8 ZONE VAV CLG COIL INLET WATER NODE,CONTROLLER:WATERCOIL,8 ZONE VAV CLG COIL CONTROLLER,Actuator,1
 Non-Parent Node Connection,8 ZONE VAV MAIN HTG COIL OUTLET AIR NODE,CONTROLLER:WATERCOIL,8 ZONE VAV MAIN HTG COIL CONTROLLER,Sensor,1
 Non-Parent Node Connection,8 ZONE VAV MAIN HTG COIL INLET WATER NODE,CONTROLLER:WATERCOIL,8 ZONE VAV MAIN HTG COIL CONTROLLER,Actuator,1
 Non-Parent Node Connection,8 ZONE VAV 1 CLG COIL OUTLET AIR NODE,CONTROLLER:WATERCOIL,8 ZONE VAV 1 CLG COIL CONTROLLER,Sensor,1
 Non-Parent Node Connection,8 ZONE VAV 1 CLG COIL INLET WATER NODE,CONTROLLER:WATERCOIL,8 ZONE VAV 1 CLG COIL CONTROLLER,Actuator,1
 Non-Parent Node Connection,8 ZONE VAV 1 MAIN HTG COIL OUTLET AIR NODE,CONTROLLER:WATERCOIL,8 ZONE VAV 1 MAIN HTG COIL CONTROLLER,Sensor,1
 Non-Parent Node Connection,8 ZONE VAV 1 MAIN HTG COIL INLET WATER NODE,CONTROLLER:WATERCOIL,8 ZONE VAV 1 MAIN HTG COIL CONTROLLER,Actuator,1
 Non-Parent Node Connection,8 ZONE VAV 2 CLG COIL OUTLET AIR NODE,CONTROLLER:WATERCOIL,8 ZONE VAV 2 CLG COIL CONTROLLER,Sensor,1
 Non-Parent Node Connection,8 ZONE VAV 2 CLG COIL INLET WATER NODE,CONTROLLER:WATERCOIL,8 ZONE VAV 2 CLG COIL CONTROLLER,Actuator,1
 Non-Parent Node Connection,8 ZONE VAV 2 MAIN HTG COIL OUTLET AIR NODE,CONTROLLER:WATERCOIL,8 ZONE VAV 2 MAIN HTG COIL CONTROLLER,Sensor,1
 Non-Parent Node Connection,8 ZONE VAV 2 MAIN HTG COIL INLET WATER NODE,CONTROLLER:WATERCOIL,8 ZONE VAV 2 MAIN HTG COIL CONTROLLER,Actuator,1
 Non-Parent Node Connection,8 ZONE VAV 3 CLG COIL OUTLET AIR NODE,CONTROLLER:WATERCOIL,8 ZONE VAV 3 CLG COIL CONTROLLER,Sensor,1
 Non-Parent Node Connection,8 ZONE VAV 3 CLG COIL INLET WATER NODE,CONTROLLER:WATERCOIL,8 ZONE VAV 3 CLG COIL CONTROLLER,Actuator,1
 Non-Parent Node Connection,8 ZONE VAV 3 MAIN HTG COIL OUTLET AIR NODE,CONTROLLER:WATERCOIL,8 ZONE VAV 3 MAIN HTG COIL CONTROLLER,Sensor,1
 Non-Parent Node Connection,8 ZONE VAV 3 MAIN HTG COIL INLET WATER NODE,CONTROLLER:WATERCOIL,8 ZONE VAV 3 MAIN HTG COIL CONTROLLER,Actuator,1
 Non-Parent Node Connection,8 ZONE VAV DEMAND OUTLET NODE,AIRLOOPHVAC:ZONEMIXER,AIR LOOP HVAC ZONE MIXER 1,Outlet,1
 Non-Parent Node Connection,BUILDING STORY 1 THERMALZONE RETURN AIR NODE,AIRLOOPHVAC:ZONEMIXER,AIR LOOP HVAC ZONE MIXER 1,Inlet,1
 Non-Parent Node Connection,BUILDING STORY 1 THERMALZONE 1 RETURN AIR NODE,AIRLOOPHVAC:ZONEMIXER,AIR LOOP HVAC ZONE MIXER 1,Inlet,1
 Non-Parent Node Connection,BUILDING STORY 1 THERMALZONE 2 RETURN AIR NODE,AIRLOOPHVAC:ZONEMIXER,AIR LOOP HVAC ZONE MIXER 1,Inlet,1
 Non-Parent Node Connection,BUILDING STORY 1 THERMALZONE 7 RETURN AIR NODE,AIRLOOPHVAC:ZONEMIXER,AIR LOOP HVAC ZONE MIXER 1,Inlet,1
 Non-Parent Node Connection,BUILDING STORY 1 THERMALZONE 4 RETURN AIR NODE,AIRLOOPHVAC:ZONEMIXER,AIR LOOP HVAC ZONE MIXER 1,Inlet,1
 Non-Parent Node Connection,BUILDING STORY 1 THERMALZONE 5 RETURN AIR NODE,AIRLOOPHVAC:ZONEMIXER,AIR LOOP HVAC ZONE MIXER 1,Inlet,1
 Non-Parent Node Connection,BUILDING STORY 1 THERMALZONE 6 RETURN AIR NODE,AIRLOOPHVAC:ZONEMIXER,AIR LOOP HVAC ZONE MIXER 1,Inlet,1
 Non-Parent Node Connection,BUILDING STORY 1 THERMALZONE 3 RETURN AIR NODE,AIRLOOPHVAC:ZONEMIXER,AIR LOOP HVAC ZONE MIXER 1,Inlet,1
 Non-Parent Node Connection,8 ZONE VAV 1 DEMAND OUTLET NODE,AIRLOOPHVAC:ZONEMIXER,AIR LOOP HVAC ZONE MIXER 2,Outlet,1
 Non-Parent Node Connection,BUILDING STORY 2 THERMALZONE 1 RETURN AIR NODE,AIRLOOPHVAC:ZONEMIXER,AIR LOOP HVAC ZONE MIXER 2,Inlet,1
 Non-Parent Node Connection,BUILDING STORY 2 THERMALZONE 2 RETURN AIR NODE,AIRLOOPHVAC:ZONEMIXER,AIR LOOP HVAC ZONE MIXER 2,Inlet,1
 Non-Parent Node Connection,BUILDING STORY 2 THERMALZONE 3 RETURN AIR NODE,AIRLOOPHVAC:ZONEMIXER,AIR LOOP HVAC ZONE MIXER 2,Inlet,1
 Non-Parent Node Connection,BUILDING STORY 2 THERMALZONE 4 RETURN AIR NODE,AIRLOOPHVAC:ZONEMIXER,AIR LOOP HVAC ZONE MIXER 2,Inlet,1
 Non-Parent Node Connection,BUILDING STORY 2 THERMALZONE 5 RETURN AIR NODE,AIRLOOPHVAC:ZONEMIXER,AIR LOOP HVAC ZONE MIXER 2,Inlet,1
 Non-Parent Node Connection,BUILDING STORY 2 THERMALZONE 6 RETURN AIR NODE,AIRLOOPHVAC:ZONEMIXER,AIR LOOP HVAC ZONE MIXER 2,Inlet,1
 Non-Parent Node Connection,BUILDING STORY 2 THERMALZONE 7 RETURN AIR NODE,AIRLOOPHVAC:ZONEMIXER,AIR LOOP HVAC ZONE MIXER 2,Inlet,1
 Non-Parent Node Connection,BUILDING STORY 2 THERMALZONE RETURN AIR NODE,AIRLOOPHVAC:ZONEMIXER,AIR LOOP HVAC ZONE MIXER 2,Inlet,1
 Non-Parent Node Connection,8 ZONE VAV 2 DEMAND OUTLET NODE,AIRLOOPHVAC:ZONEMIXER,AIR LOOP HVAC ZONE MIXER 3,Outlet,1
 Non-Parent Node Connection,BUILDING STORY 3 THERMALZONE 7 RETURN AIR NODE,AIRLOOPHVAC:ZONEMIXER,AIR LOOP HVAC ZONE MIXER 3,Inlet,1
 Non-Parent Node Connection,BUILDING STORY 3 THERMALZONE 1 RETURN AIR NODE,AIRLOOPHVAC:ZONEMIXER,AIR LOOP HVAC ZONE MIXER 3,Inlet,1
 Non-Parent Node Connection,BUILDING STORY 3 THERMALZONE 2 RETURN AIR NODE,AIRLOOPHVAC:ZONEMIXER,AIR LOOP HVAC ZONE MIXER 3,Inlet,1
 Non-Parent Node Connection,BUILDING STORY 3 THERMALZONE 3 RETURN AIR NODE,AIRLOOPHVAC:ZONEMIXER,AIR LOOP HVAC ZONE MIXER 3,Inlet,1
 Non-Parent Node Connection,BUILDING STORY 3 THERMALZONE 4 RETURN AIR NODE,AIRLOOPHVAC:ZONEMIXER,AIR LOOP HVAC ZONE MIXER 3,Inlet,1
 Non-Parent Node Connection,BUILDING STORY 3 THERMALZONE 5 RETURN AIR NODE,AIRLOOPHVAC:ZONEMIXER,AIR LOOP HVAC ZONE MIXER 3,Inlet,1
 Non-Parent Node Connection,BUILDING STORY 3 THERMALZONE 6 RETURN AIR NODE,AIRLOOPHVAC:ZONEMIXER,AIR LOOP HVAC ZONE MIXER 3,Inlet,1
 Non-Parent Node Connection,BUILDING STORY 3 THERMALZONE RETURN AIR NODE,AIRLOOPHVAC:ZONEMIXER,AIR LOOP HVAC ZONE MIXER 3,Inlet,1
 Non-Parent Node Connection,8 ZONE VAV 3 DEMAND OUTLET NODE,AIRLOOPHVAC:ZONEMIXER,AIR LOOP HVAC ZONE MIXER 4,Outlet,1
 Non-Parent Node Connection,BUILDING STORY 4 THERMALZONE RETURN AIR NODE,AIRLOOPHVAC:ZONEMIXER,AIR LOOP HVAC ZONE MIXER 4,Inlet,1
 Non-Parent Node Connection,BUILDING STORY 4 THERMALZONE 3 RETURN AIR NODE,AIRLOOPHVAC:ZONEMIXER,AIR LOOP HVAC ZONE MIXER 4,Inlet,1
 Non-Parent Node Connection,BUILDING STORY 4 THERMALZONE 4 RETURN AIR NODE,AIRLOOPHVAC:ZONEMIXER,AIR LOOP HVAC ZONE MIXER 4,Inlet,1
 Non-Parent Node Connection,BUILDING STORY 4 THERMALZONE 7 RETURN AIR NODE,AIRLOOPHVAC:ZONEMIXER,AIR LOOP HVAC ZONE MIXER 4,Inlet,1
 Non-Parent Node Connection,BUILDING STORY 4 THERMALZONE 6 RETURN AIR NODE,AIRLOOPHVAC:ZONEMIXER,AIR LOOP HVAC ZONE MIXER 4,Inlet,1
 Non-Parent Node Connection,BUILDING STORY 4 THERMALZONE 1 RETURN AIR NODE,AIRLOOPHVAC:ZONEMIXER,AIR LOOP HVAC ZONE MIXER 4,Inlet,1
 Non-Parent Node Connection,BUILDING STORY 4 THERMALZONE 2 RETURN AIR NODE,AIRLOOPHVAC:ZONEMIXER,AIR LOOP HVAC ZONE MIXER 4,Inlet,1
 Non-Parent Node Connection,BUILDING STORY 4 THERMALZONE 5 RETURN AIR NODE,AIRLOOPHVAC:ZONEMIXER,AIR LOOP HVAC ZONE MIXER 4,Inlet,1
 Non-Parent Node Connection,8 ZONE VAV MIXED AIR NODE,OUTDOORAIR:MIXER,8 ZONE VAV OA SYSTEM OUTDOOR AIR MIXER,Outlet,1
 Non-Parent Node Connection,8 ZONE VAV OUTDOOR AIR NODE,OUTDOORAIR:MIXER,8 ZONE VAV OA SYSTEM OUTDOOR AIR MIXER,Inlet,1
 Non-Parent Node Connection,8 ZONE VAV RELIEF AIR NODE,OUTDOORAIR:MIXER,8 ZONE VAV OA SYSTEM OUTDOOR AIR MIXER,ReliefAir,1
 Non-Parent Node Connection,8 ZONE VAV SUPPLY INLET NODE,OUTDOORAIR:MIXER,8 ZONE VAV OA SYSTEM OUTDOOR AIR MIXER,Inlet,1
 Non-Parent Node Connection,8 ZONE VAV 1 MIXED AIR NODE,OUTDOORAIR:MIXER,8 ZONE VAV 1 OA SYSTEM OUTDOOR AIR MIXER,Outlet,1
 Non-Parent Node Connection,8 ZONE VAV 1 OUTDOOR AIR NODE,OUTDOORAIR:MIXER,8 ZONE VAV 1 OA SYSTEM OUTDOOR AIR MIXER,Inlet,1
 Non-Parent Node Connection,8 ZONE VAV 1 RELIEF AIR NODE,OUTDOORAIR:MIXER,8 ZONE VAV 1 OA SYSTEM OUTDOOR AIR MIXER,ReliefAir,1
 Non-Parent Node Connection,8 ZONE VAV 1 SUPPLY INLET NODE,OUTDOORAIR:MIXER,8 ZONE VAV 1 OA SYSTEM OUTDOOR AIR MIXER,Inlet,1
 Non-Parent Node Connection,8 ZONE VAV 2 MIXED AIR NODE,OUTDOORAIR:MIXER,8 ZONE VAV 2 OA SYSTEM OUTDOOR AIR MIXER,Outlet,1
 Non-Parent Node Connection,8 ZONE VAV 2 OUTDOOR AIR NODE,OUTDOORAIR:MIXER,8 ZONE VAV 2 OA SYSTEM OUTDOOR AIR MIXER,Inlet,1
 Non-Parent Node Connection,8 ZONE VAV 2 RELIEF AIR NODE,OUTDOORAIR:MIXER,8 ZONE VAV 2 OA SYSTEM OUTDOOR AIR MIXER,ReliefAir,1
 Non-Parent Node Connection,8 ZONE VAV 2 SUPPLY INLET NODE,OUTDOORAIR:MIXER,8 ZONE VAV 2 OA SYSTEM OUTDOOR AIR MIXER,Inlet,1
 Non-Parent Node Connection,8 ZONE VAV 3 MIXED AIR NODE,OUTDOORAIR:MIXER,8 ZONE VAV 3 OA SYSTEM OUTDOOR AIR MIXER,Outlet,1
 Non-Parent Node Connection,8 ZONE VAV 3 OUTDOOR AIR NODE,OUTDOORAIR:MIXER,8 ZONE VAV 3 OA SYSTEM OUTDOOR AIR MIXER,Inlet,1
 Non-Parent Node Connection,8 ZONE VAV 3 RELIEF AIR NODE,OUTDOORAIR:MIXER,8 ZONE VAV 3 OA SYSTEM OUTDOOR AIR MIXER,ReliefAir,1
 Non-Parent Node Connection,8 ZONE VAV 3 SUPPLY INLET NODE,OUTDOORAIR:MIXER,8 ZONE VAV 3 OA SYSTEM OUTDOOR AIR MIXER,Inlet,1
 Non-Parent Node Connection,8 ZONE VAV MAIN HTG COIL OUTLET AIR NODE,FAN:VARIABLEVOLUME,8 ZONE VAV FAN,Inlet,1
 Non-Parent Node Connection,8 ZONE VAV SUPPLY OUTLET NODE,FAN:VARIABLEVOLUME,8 ZONE VAV FAN,Outlet,1
 Non-Parent Node Connection,8 ZONE VAV 1 MAIN HTG COIL OUTLET AIR NODE,FAN:VARIABLEVOLUME,8 ZONE VAV 1 FAN,Inlet,1
 Non-Parent Node Connection,8 ZONE VAV 1 SUPPLY OUTLET NODE,FAN:VARIABLEVOLUME,8 ZONE VAV 1 FAN,Outlet,1
 Non-Parent Node Connection,8 ZONE VAV 2 MAIN HTG COIL OUTLET AIR NODE,FAN:VARIABLEVOLUME,8 ZONE VAV 2 FAN,Inlet,1
 Non-Parent Node Connection,8 ZONE VAV 2 SUPPLY OUTLET NODE,FAN:VARIABLEVOLUME,8 ZONE VAV 2 FAN,Outlet,1
 Non-Parent Node Connection,8 ZONE VAV 3 MAIN HTG COIL OUTLET AIR NODE,FAN:VARIABLEVOLUME,8 ZONE VAV 3 FAN,Inlet,1
 Non-Parent Node Connection,8 ZONE VAV 3 SUPPLY OUTLET NODE,FAN:VARIABLEVOLUME,8 ZONE VAV 3 FAN,Outlet,1
 Non-Parent Node Connection,8 ZONE VAV MIXED AIR NODE,CONTROLLER:OUTDOORAIR,8 ZONE VAV OA CONTROLLER,Sensor,1
 Non-Parent Node Connection,8 ZONE VAV OUTDOOR AIR NODE,CONTROLLER:OUTDOORAIR,8 ZONE VAV OA CONTROLLER,Actuator,1
 Non-Parent Node Connection,8 ZONE VAV RELIEF AIR NODE,CONTROLLER:OUTDOORAIR,8 ZONE VAV OA CONTROLLER,Actuator,1
 Non-Parent Node Connection,8 ZONE VAV SUPPLY INLET NODE,CONTROLLER:OUTDOORAIR,8 ZONE VAV OA CONTROLLER,Sensor,1
 Non-Parent Node Connection,8 ZONE VAV 1 MIXED AIR NODE,CONTROLLER:OUTDOORAIR,8 ZONE VAV 1 OA CONTROLLER,Sensor,1
 Non-Parent Node Connection,8 ZONE VAV 1 OUTDOOR AIR NODE,CONTROLLER:OUTDOORAIR,8 ZONE VAV 1 OA CONTROLLER,Actuator,1
 Non-Parent Node Connection,8 ZONE VAV 1 RELIEF AIR NODE,CONTROLLER:OUTDOORAIR,8 ZONE VAV 1 OA CONTROLLER,Actuator,1
 Non-Parent Node Connection,8 ZONE VAV 1 SUPPLY INLET NODE,CONTROLLER:OUTDOORAIR,8 ZONE VAV 1 OA CONTROLLER,Sensor,1
 Non-Parent Node Connection,8 ZONE VAV 2 MIXED AIR NODE,CONTROLLER:OUTDOORAIR,8 ZONE VAV 2 OA CONTROLLER,Sensor,1
 Non-Parent Node Connection,8 ZONE VAV 2 OUTDOOR AIR NODE,CONTROLLER:OUTDOORAIR,8 ZONE VAV 2 OA CONTROLLER,Actuator,1
 Non-Parent Node Connection,8 ZONE VAV 2 RELIEF AIR NODE,CONTROLLER:OUTDOORAIR,8 ZONE VAV 2 OA CONTROLLER,Actuator,1
 Non-Parent Node Connection,8 ZONE VAV 2 SUPPLY INLET NODE,CONTROLLER:OUTDOORAIR,8 ZONE VAV 2 OA CONTROLLER,Sensor,1
 Non-Parent Node Connection,8 ZONE VAV 3 MIXED AIR NODE,CONTROLLER:OUTDOORAIR,8 ZONE VAV 3 OA CONTROLLER,Sensor,1
 Non-Parent Node Connection,8 ZONE VAV 3 OUTDOOR AIR NODE,CONTROLLER:OUTDOORAIR,8 ZONE VAV 3 OA CONTROLLER,Actuator,1
 Non-Parent Node Connection,8 ZONE VAV 3 RELIEF AIR NODE,CONTROLLER:OUTDOORAIR,8 ZONE VAV 3 OA CONTROLLER,Actuator,1
 Non-Parent Node Connection,8 ZONE VAV 3 SUPPLY INLET NODE,CONTROLLER:OUTDOORAIR,8 ZONE VAV 3 OA CONTROLLER,Sensor,1
 Non-Parent Node Connection,CHILLED WATER LOOP SECONDARY PUMP INLET WATER NODE,PUMP:VARIABLESPEED,CHILLED WATER LOOP SECONDARY PUMP,Inlet,1
 Non-Parent Node Connection,CHILLED WATER LOOP SECONDARY PUMP OUTLET WATER NODE,PUMP:VARIABLESPEED,CHILLED WATER LOOP SECONDARY PUMP,Outlet,1
 Non-Parent Node Connection,BOOSTER WATER LOOP PUMP INLET WATER NODE,PUMP:VARIABLESPEED,BOOSTER WATER LOOP PUMP,Inlet,1
 Non-Parent Node Connection,BOOSTER WATER LOOP PUMP OUTLET WATER NODE,PUMP:VARIABLESPEED,BOOSTER WATER LOOP PUMP,Outlet,1
 Non-Parent Node Connection,FULLSERVICERESTAURANT KITCHEN - 90.1-2013 SERVICE WATER LOOP SUPPLY INLET NODE,PUMP:VARIABLESPEED,FULLSERVICERESTAURANT KITCHEN - 90.1-2013 SERVICE WATER LOOP WATER MAINS PRESSURE DRIVEN,Inlet,1
 Non-Parent Node Connection,FULLSERVICERESTAURANT KITCHEN - 90.1-2013 SERVICE WATER LOOP WATER MAINS PRESSURE DRIVEN OUTLET WATER NODE,PUMP:VARIABLESPEED,FULLSERVICERESTAURANT KITCHEN - 90.1-2013 SERVICE WATER LOOP WATER MAINS PRESSURE DRIVEN,Outlet,1
 Non-Parent Node Connection,HOT WATER LOOP SUPPLY INLET NODE,PUMP:VARIABLESPEED,HOT WATER LOOP PUMP,Inlet,1
 Non-Parent Node Connection,HOT WATER LOOP PUMP OUTLET WATER NODE,PUMP:VARIABLESPEED,HOT WATER LOOP PUMP,Outlet,1
 Non-Parent Node Connection,CHILLED WATER LOOP SUPPLY INLET NODE,PUMP:CONSTANTSPEED,CHILLED WATER LOOP PRIMARY PUMP,Inlet,1
 Non-Parent Node Connection,CHILLED WATER LOOP PRIMARY PUMP OUTLET WATER NODE,PUMP:CONSTANTSPEED,CHILLED WATER LOOP PRIMARY PUMP,Outlet,1
 Non-Parent Node Connection,CONDENSER WATER LOOP SUPPLY INLET NODE,PUMP:CONSTANTSPEED,CONDENSER WATER LOOP CONSTANT PUMP,Inlet,1
 Non-Parent Node Connection,CONDENSER WATER LOOP CONSTANT PUMP OUTLET WATER NODE,PUMP:CONSTANTSPEED,CONDENSER WATER LOOP CONSTANT PUMP,Outlet,1
 Non-Parent Node Connection,OFFICE SHARED SERVICE WATER LOOP SUPPLY INLET NODE,PUMP:CONSTANTSPEED,OFFICE SHARED SERVICE WATER LOOP CIRCULATOR PUMP,Inlet,1
 Non-Parent Node Connection,OFFICE SHARED SERVICE WATER LOOP CIRCULATOR PUMP OUTLET WATER NODE,PUMP:CONSTANTSPEED,OFFICE SHARED SERVICE WATER LOOP CIRCULATOR PUMP,Outlet,1
