Program Version,EnergyPlus, Version 9.4.0-998c4b761e, YMD=2021.03.24 06:32
! <Version>, Version ID
 Version, 9.4
! <Timesteps per Hour>, #TimeSteps, Minutes per TimeStep {minutes}
 Timesteps per Hour,  1, 60
! <System Convergence Limits>, Minimum System TimeStep {minutes}, Max HVAC Iterations, Minimum Plant Iterations, Maximum Plant Iterations
 System Convergence Limits, 60, 20, 2, 8
! <Simulation Control>, Do Zone Sizing, Do System Sizing, Do Plant Sizing, Do Design Days, Do Weather Simulation, Do HVAC Sizing Simulation
 Simulation Control, No, No, No, No, Yes, No
! <Performance Precision Tradeoffs>, Use Coil Direct Simulation, Zone Radiant Exchange Algorithm, Override Mode, Number of Timestep In Hour, Force Euler Method, Minimum Number of Warmup Days, Force Suppress All Begin Environment Resets, Minimum System Timestep, MaxZoneTempDiff, MaxAllowedDelTemp
 Performance Precision Tradeoffs, No, ScriptF, Normal, 1, No, 1, No, 60.0, 0.300, 2.0000E-003
! <Output Reporting Tolerances>, Tolerance for Time Heating Setpoint Not Met, Tolerance for Zone Cooling Setpoint Not Met Time
 Output Reporting Tolerances, 0.200, 0.200, 
! <Site:GroundTemperature:BuildingSurface>,Jan{C},Feb{C},Mar{C},Apr{C},May{C},Jun{C},Jul{C},Aug{C},Sep{C},Oct{C},Nov{C},Dec{C}
 Site:GroundTemperature:BuildingSurface,  18.00,  18.00,  18.00,  18.00,  18.00,  18.00,  18.00,  18.00,  18.00,  18.00,  18.00,  18.00
! <Site:GroundTemperature:FCfactorMethod>,Jan{C},Feb{C},Mar{C},Apr{C},May{C},Jun{C},Jul{C},Aug{C},Sep{C},Oct{C},Nov{C},Dec{C}
 Site:GroundTemperature:FCfactorMethod,  -2.87,  -0.64,   3.71,   7.83,  15.62,  19.72,  20.85,  18.77,  13.96,   7.98,   2.08,  -1.81
! <Site:GroundTemperature:Shallow>,Jan{C},Feb{C},Mar{C},Apr{C},May{C},Jun{C},Jul{C},Aug{C},Sep{C},Oct{C},Nov{C},Dec{C}
 Site:GroundTemperature:Shallow,   4.30,   2.29,   2.13,   3.09,   6.91,  10.72,  14.02,  16.12,  16.29,  14.59,  11.37,   7.68
! <Site:GroundTemperature:Deep>,Jan{C},Feb{C},Mar{C},Apr{C},May{C},Jun{C},Jul{C},Aug{C},Sep{C},Oct{C},Nov{C},Dec{C}
 Site:GroundTemperature:Deep,   9.05,   9.05,   9.05,   9.05,   9.05,   9.05,   9.05,   9.05,   9.05,   9.05,   9.05,   9.05
! <Site:GroundReflectance>,Jan{dimensionless},Feb{dimensionless},Mar{dimensionless},Apr{dimensionless},May{dimensionless},Jun{dimensionless},Jul{dimensionless},Aug{dimensionless},Sep{dimensionless},Oct{dimensionless},Nov{dimensionless},Dec{dimensionless}
 Site:GroundReflectance,  0.20,  0.20,  0.20,  0.20,  0.20,  0.20,  0.20,  0.20,  0.20,  0.20,  0.20,  0.20
! <Site:GroundReflectance:SnowModifier>, Normal, Daylighting {dimensionless}
 Site:GroundReflectance:SnowModifier,   1.000,   1.000
! <Site:GroundReflectance:Snow>,Jan{dimensionless},Feb{dimensionless},Mar{dimensionless},Apr{dimensionless},May{dimensionless},Jun{dimensionless},Jul{dimensionless},Aug{dimensionless},Sep{dimensionless},Oct{dimensionless},Nov{dimensionless},Dec{dimensionless}
 Site:GroundReflectance:Snow,  0.20,  0.20,  0.20,  0.20,  0.20,  0.20,  0.20,  0.20,  0.20,  0.20,  0.20,  0.20
! <Site:GroundReflectance:Snow:Daylighting>,Jan{dimensionless},Feb{dimensionless},Mar{dimensionless},Apr{dimensionless},May{dimensionless},Jun{dimensionless},Jul{dimensionless},Aug{dimensionless},Sep{dimensionless},Oct{dimensionless},Nov{dimensionless},Dec{dimensionless}
 Site:GroundReflectance:Snow:Daylighting,  0.20,  0.20,  0.20,  0.20,  0.20,  0.20,  0.20,  0.20,  0.20,  0.20,  0.20,  0.20
! <Environment:Weather Station>,Wind Sensor Height Above Ground {m},Wind Speed Profile Exponent {},Wind Speed Profile Boundary Layer Thickness {m},Air Temperature Sensor Height Above Ground {m},Wind Speed Modifier Coefficient-Internal,Temperature Modifier Coefficient-Internal
Environment:Weather Station,10.000,0.140,270.000,1.500,1.586,9.750E-003
! <Site:Location>, Location Name, Latitude {N+/S- Deg}, Longitude {E+/W- Deg},  Time Zone Number {GMT+/-}, Elevation {m},  Standard Pressure at Elevation {Pa}, Standard RhoAir at Elevation
Site:Location,Buffalo Niagara Intl Ap NY USA TMY3 WMO#=725280,42.93,-78.73,-5.00,215.00,98769,1.1739
! <Site Water Mains Temperature Information>,Calculation Method{},Water Mains Temperature Schedule Name{},Annual Average Outdoor Air Temperature{C},Maximum Difference In Monthly Average Outdoor Air Temperatures{deltaC},Fixed Default Water Mains Temperature{C}
Site Water Mains Temperature Information,Schedule,MAINS TEMPERATURE SCHEDULE,0.00,0.00,NA
! <Building Information>, Building Name,North Axis {deg},Terrain,  Loads Convergence Tolerance Value,Temperature Convergence Tolerance Value,  Solar Distribution,Maximum Number of Warmup Days,Minimum Number of Warmup Days
 Building Information,Building 1,0.000,Suburbs,4.00000E-002,0.40000,FullExterior,25,1
! <Inside Convection Algorithm>, Algorithm {Simple | TARP | CeilingDiffuser | AdaptiveConvectionAlgorithm}
Inside Convection Algorithm,TARP
! <Outside Convection Algorithm>, Algorithm {SimpleCombined | TARP | MoWitt | DOE-2 | AdaptiveConvectionAlgorithm}
Outside Convection Algorithm,DOE-2
! <Sky Radiance Distribution>, Value {Anisotropic}
Sky Radiance Distribution,Anisotropic
! <Zone Air Solution Algorithm>, Value {ThirdOrderBackwardDifference | AnalyticalSolution | EulerMethod}
 Zone Air Solution Algorithm, ThirdOrderBackwardDifference
! <Zone Air Carbon Dioxide Balance Simulation>, Simulation {Yes/No}, Carbon Dioxide Concentration
 Zone Air Carbon Dioxide Balance Simulation, No,N/A
! <Zone Air Generic Contaminant Balance Simulation>, Simulation {Yes/No}, Generic Contaminant Concentration
 Zone Air Generic Contaminant Balance Simulation, No,N/A
! <Zone Air Mass Flow Balance Simulation>, Enforce Mass Balance, Adjust Zone Mixing, Adjust Zone Infiltration {AddInfiltration | AdjustInfiltration | None}, Infiltration Zones {MixingSourceZonesOnly | AllZones}
 Zone Air Mass Flow Balance Simulation, No,N/A,N/A,N/A
! <HVACSystemRootFindingAlgorithm>, Value {RegulaFalsi | Bisection | BisectionThenRegulaFalsi | RegulaFalsiThenBisection}
 HVACSystemRootFindingAlgorithm, RegulaFalsi
! <Environment:Site Atmospheric Variation>,Wind Speed Profile Exponent {},Wind Speed Profile Boundary Layer Thickness {m},Air Temperature Gradient Coefficient {K/m}
Environment:Site Atmospheric Variation,0.220,370.000,6.500000E-003
! <Surface Geometry>,Starting Corner,Vertex Input Direction,Coordinate System,Daylight Reference Point Coordinate System,Rectangular (Simple) Surface Coordinate System
 Surface Geometry,UpperLeftCorner,Counterclockwise,RelativeCoordinateSystem,RelativeCoordinateSystem,RelativeToZoneOrigin
! <Zone Volume Capacitance Multiplier>, Sensible Heat Capacity Multiplier, Moisture Capacity Multiplier, Carbon Dioxide Capacity Multiplier, Generic Contaminant Capacity Multiplier
Zone Volume Capacitance Multiplier,   1.000 ,  15.000,   1.000,   1.000
! <Kiva Foundation Name>, Horizontal Cells, Vertical Cells, Total Cells, Total Exposed Perimeter, Perimeter Fraction, Wall Height, Wall Construction, Floor Surface, Wall Surface(s)
FOUNDATION KIVA 1,13,13,169,71.32,1.00,0.91,SURFACE_13 CONSTRUCTION,SURFACE_12,SURFACE_13
! <Surface Heat Transfer Algorithm>, Value {CTF - ConductionTransferFunction | EMPD - MoisturePenetrationDepthConductionTransferFunction | CondFD - ConductionFiniteDifference | HAMT - CombinedHeatAndMoistureFiniteElement} - Description,Inside Surface Max Temperature Limit{C}, Surface Convection Coefficient Lower Limit {W/m2-K}, Surface Convection Coefficient Upper Limit {W/m2-K}
Surface Heat Transfer Algorithm, CTF - ConductionTransferFunction,200,0.10,1000.0
Surface Heat Transfer Algorithm, KivaFoundation - TwoDimensionalFiniteDifference,200,0.10,1000.0
! <Shading Summary>, Number of Fixed Detached Shades, Number of Building Detached Shades, Number of Attached Shades
 Shading Summary,0,4,8
! <Zone Summary>, Number of Zones, Number of Zone Surfaces, Number of SubSurfaces
 Zone Summary,4,32,5
! <Zone Information>,Zone Name,North Axis {deg},Origin X-Coordinate {m},Origin Y-Coordinate {m},Origin Z-Coordinate {m},Centroid X-Coordinate {m},Centroid Y-Coordinate {m},Centroid Z-Coordinate {m},Type,Zone Multiplier,Zone List Multiplier,Minimum X {m},Maximum X {m},Minimum Y {m},Maximum Y {m},Minimum Z {m},Maximum Z {m},Ceiling Height {m},Volume {m3},Zone Inside Convection Algorithm {Simple-Detailed-CeilingDiffuser-TrombeWall},Zone Outside Convection Algorithm {Simple-Detailed-Tarp-MoWitt-DOE-2-BLAST}, Floor Area {m2},Exterior Gross Wall Area {m2},Exterior Net Wall Area {m2},Exterior Window Area {m2}, Number of Surfaces, Number of SubSurfaces, Number of Shading SubSurfaces,  Part of Total Building Area
 Zone Information, ATTIC - VENTED,0.0,0.00,0.00,0.00,-17.74,-4.16E-007,3.77,1,1,1,-57.88,57.88,-57.88,57.88,0.00,8.07,2.82,356.39,TARP,DOE-2,283.82,35.49,35.49,0.00,5,0,0,Yes
 Zone Information, CENTRAL AC AND FURNACE AIRLOOP RET AIR ZONE,0.0,0.00,0.00,0.00,0.50,0.50,0.50,1,1,1,0.00,1.00,0.00,1.00,0.00,1.00,1.00,1.00,TARP,DOE-2,1.00,0.00,0.00,0.00,6,0,0,No
 Zone Information, CRAWLSPACE - UNVENTED,0.0,0.00,0.00,0.00,1.31,5.96,-0.46,1,1,1,-22.99,48.34,-8.42,57.88,-0.91,0.00,0.91,259.52,TARP,DOE-2,283.82,0.00,0.00,0.00,3,0,0,Yes
 Zone Information, LIVING SPACE,0.0,0.00,0.00,0.00,-4.56,-3.89E-004,1.19,1,1,1,-57.88,57.88,-57.88,57.88,0.00,2.44,2.44,692.06,TARP,DOE-2,283.82,174.33,140.97,31.49,11,5,8,Yes
! <Zone Internal Gains Nominal>,Zone Name, Floor Area {m2},# Occupants,Area per Occupant {m2/person},Occupant per Area {person/m2},Interior Lighting {W/m2},Electric Load {W/m2},Gas Load {W/m2},Other Load {W/m2},Hot Water Eq {W/m2},Steam Equipment {W/m2},Sum Loads per Area {W/m2},Outdoor Controlled Baseboard Heat
 Zone Internal Gains Nominal, ATTIC - VENTED,283.82,0.0,N/A,0.000,0.000,0.000,0.000,0.000,0.000,0.000,0.000,No
 Zone Internal Gains Nominal, CENTRAL AC AND FURNACE AIRLOOP RET AIR ZONE,1.00,0.0,N/A,0.000,0.000,0.000,0.000,0.000,0.000,0.000,0.000,No
 Zone Internal Gains Nominal, CRAWLSPACE - UNVENTED,283.82,0.0,N/A,0.000,0.000,0.000,0.000,0.000,0.000,0.000,0.000,No
 Zone Internal Gains Nominal, LIVING SPACE,283.82,3.0,94.606,1.057E-002,2.516,95.181,0.000,67.685,0.000,0.000,165.382,No
! <People Internal Gains Nominal>,Name,Schedule Name,Zone Name,Zone Floor Area {m2},# Zone Occupants,Number of People {},People/Floor Area {person/m2},Floor Area per person {m2/person},Fraction Radiant,Fraction Convected,Sensible Fraction Calculation,Activity level,ASHRAE 55 Warnings,Carbon Dioxide Generation Rate,Nominal Minimum Number of People,Nominal Maximum Number of People
 People Internal Gains Nominal, OCCUPANTS,OCCUPANTS,LIVING SPACE,283.82,3.0,3.0,1.057E-002,94.606,0.314,0.686,0.563,OCCUPANTS ACTIVITY SCHEDULE,No,0.0000,0,3
! <Lights Internal Gains Nominal>,Name,Schedule Name,Zone Name,Zone Floor Area {m2},# Zone Occupants,Lighting Level {W},Lights/Floor Area {W/m2},Lights per person {W/person},Fraction Return Air,Fraction Radiant,Fraction Short Wave,Fraction Convected,Fraction Replaceable,End-Use Category,Nominal Minimum Lighting Level {W},Nominal Maximum Lighting Level {W}
 Lights Internal Gains Nominal, INTERIOR LIGHTING,LIGHTING_INTERIOR,LIVING SPACE,283.82,3.0,714.086,2.516,238.029,0.000,0.600,0.200,0.200,1.000,interior lighting,35.347,714.086
! <ElectricEquipment Internal Gains Nominal>,Name,Schedule Name,Zone Name,Zone Floor Area {m2},# Zone Occupants,Equipment Level {W},Equipment/Floor Area {W/m2},Equipment per person {W/person},Fraction Latent,Fraction Radiant,Fraction Lost,Fraction Convected,End-Use SubCategory,Nominal Minimum Equipment Level {W},Nominal Maximum Equipment Level {W}
 ElectricEquipment Internal Gains Nominal, CEILING FAN,CEILING_FAN,LIVING SPACE,283.82,3.0,50.185,0.177,16.728,0.000,0.558,0.000,0.442,ceiling fan,10.639,50.185
 ElectricEquipment Internal Gains Nominal, CLOTHES DRYER,CLOTHES_DRYER,LIVING SPACE,283.82,3.0,395.957,1.395,131.986,1.648E-002,8.011E-002,0.850,5.341E-002,clothes dryer,0.000,126.310
 ElectricEquipment Internal Gains Nominal, CLOTHES WASHER,CLOTHES_WASHER_POWER,LIVING SPACE,283.82,3.0,10706.405,37.723,3568.802,3.000E-002,0.162,0.700,0.108,clothes washer,0.000,233.400
 ElectricEquipment Internal Gains Nominal, COOKING RANGE,COOKING_RANGE,LIVING SPACE,283.82,3.0,475.131,1.674,158.377,0.162,0.383,0.200,0.255,cooking range,0.000,66.994
 ElectricEquipment Internal Gains Nominal, DISHWASHER,DISHWASHER_POWER,LIVING SPACE,283.82,3.0,14387.380,50.692,4795.793,0.300,0.180,0.400,0.120,dishwasher,0.000,1120.777
 ElectricEquipment Internal Gains Nominal, FRIDGE,REFRIGERATOR,LIVING SPACE,283.82,3.0,63.390,0.223,21.130,0.000,0.600,0.000,0.400,fridge,34.801,63.390
 ElectricEquipment Internal Gains Nominal, MECH VENT BATH FAN 0,MECH VENT BATH FAN 0 SCHEDULE,LIVING SPACE,283.82,3.0,30.000,0.106,10.000,0.000,0.000,1.000,0.000,mech vent,0.000,30.000
 ElectricEquipment Internal Gains Nominal, MECH VENT HOUSE FAN,ALWAYS ON DISCRETE,LIVING SPACE,283.82,3.0,30.000,0.106,10.000,0.000,0.000,0.500,0.500,mech vent,30.000,30.000
 ElectricEquipment Internal Gains Nominal, MECH VENT HOUSE FAN CFIS,ALWAYS ON DISCRETE,LIVING SPACE,283.82,3.0,0.000,0.000,0.000,0.000,0.000,0.000,1.000,mech vent,0.000,0.000
 ElectricEquipment Internal Gains Nominal, MECH VENT RANGE FAN 0,MECH VENT RANGE FAN 0 SCHEDULE,LIVING SPACE,283.82,3.0,30.000,0.106,10.000,0.000,0.000,1.000,0.000,mech vent,0.000,30.000
 ElectricEquipment Internal Gains Nominal, MISC PLUG LOADS,PLUG_LOADS_OTHER,LIVING SPACE,283.82,3.0,575.064,2.026,191.688,4.500E-002,0.513,0.100,0.342,misc plug loads,240.377,575.064
 ElectricEquipment Internal Gains Nominal, MISC TV,PLUG_LOADS_TV,LIVING SPACE,283.82,3.0,270.753,0.954,90.251,0.000,0.600,0.000,0.400,misc tv,3.682,270.753
 ElectricEquipment Internal Gains Nominal, WHOLE HOUSE FAN,ALWAYS ON DISCRETE,LIVING SPACE,283.82,3.0,0.000,0.000,0.000,0.000,0.000,1.000,0.000,whole house fan,0.000,0.000
! <OtherEquipment Internal Gains Nominal>,Name,Schedule Name,Zone Name,Zone Floor Area {m2},# Zone Occupants,Equipment Level {W},Equipment/Floor Area {W/m2},Equipment per person {W/person},Fraction Latent,Fraction Radiant,Fraction Lost,Fraction Convected,Nominal Minimum Equipment Level {W},Nominal Maximum Equipment Level {W}
 OtherEquipment Internal Gains Nominal, CENTRAL_AC_AND_FURNACE_AIRLOOP_0_RETCONDTORP EQUIP,ALWAYS ON DISCRETE,CENTRAL AC AND FURNACE AIRLOOP RET AIR ZONE,1.00,0.0,0.000,0.000,N/A,0.000,0.000,0.000,1.000,0.000,0.000
 OtherEquipment Internal Gains Nominal, CENTRAL_AC_AND_FURNACE_AIRLOOP_0_RETLATLKTORP EQUIP,ALWAYS ON DISCRETE,CENTRAL AC AND FURNACE AIRLOOP RET AIR ZONE,1.00,0.0,0.000,0.000,N/A,1.000,0.000,0.000,0.000,0.000,0.000
 OtherEquipment Internal Gains Nominal, CENTRAL_AC_AND_FURNACE_AIRLOOP_0_RETSENSLKTORP EQUIP,ALWAYS ON DISCRETE,CENTRAL AC AND FURNACE AIRLOOP RET AIR ZONE,1.00,0.0,0.000,0.000,N/A,0.000,0.000,0.000,1.000,0.000,0.000
 OtherEquipment Internal Gains Nominal, CENTRAL_AC_AND_FURNACE_AIRLOOP_0_RETCONDTODZ EQUIP,ALWAYS ON DISCRETE,CRAWLSPACE - UNVENTED,283.82,0.0,0.000,0.000,N/A,0.000,0.000,0.000,1.000,0.000,0.000
 OtherEquipment Internal Gains Nominal, CENTRAL_AC_AND_FURNACE_AIRLOOP_0_SUPCONDTODZ EQUIP,ALWAYS ON DISCRETE,CRAWLSPACE - UNVENTED,283.82,0.0,0.000,0.000,N/A,0.000,0.000,0.000,1.000,0.000,0.000
 OtherEquipment Internal Gains Nominal, CENTRAL_AC_AND_FURNACE_AIRLOOP_0_SUPLATLKTODZ EQUIP,ALWAYS ON DISCRETE,CRAWLSPACE - UNVENTED,283.82,0.0,0.000,0.000,N/A,1.000,0.000,0.000,0.000,0.000,0.000
 OtherEquipment Internal Gains Nominal, CENTRAL_AC_AND_FURNACE_AIRLOOP_0_SUPSENSLKTODZ EQUIP,ALWAYS ON DISCRETE,CRAWLSPACE - UNVENTED,283.82,0.0,0.000,0.000,N/A,0.000,0.000,0.000,1.000,0.000,0.000
 OtherEquipment Internal Gains Nominal, CENTRAL_AC_AND_FURNACE_AIRLOOP_0_SUPCONDTOLV EQUIP,ALWAYS ON DISCRETE,LIVING SPACE,283.82,3.0,0.000,0.000,0.000,0.000,0.000,0.000,1.000,0.000,0.000
 OtherEquipment Internal Gains Nominal, CENTRAL_AC_AND_FURNACE_AIRLOOP_0_SUPLATLKTOLV EQUIP,ALWAYS ON DISCRETE,LIVING SPACE,283.82,3.0,0.000,0.000,0.000,1.000,0.000,0.000,0.000,0.000,0.000
 OtherEquipment Internal Gains Nominal, CENTRAL_AC_AND_FURNACE_AIRLOOP_0_SUPSENSLKTOLV EQUIP,ALWAYS ON DISCRETE,LIVING SPACE,283.82,3.0,0.000,0.000,0.000,0.000,0.000,0.000,1.000,0.000,0.000
 OtherEquipment Internal Gains Nominal, CLOTHES DRYER 1,CLOTHES_DRYER,LIVING SPACE,283.82,3.0,5260.354,18.534,1753.451,1.648E-002,8.011E-002,0.850,5.341E-002,0.000,1678.053
 OtherEquipment Internal Gains Nominal, COOKING RANGE 1,COOKING_RANGE,LIVING SPACE,283.82,3.0,13924.728,49.062,4641.576,0.162,0.383,0.200,0.255,0.000,1963.387
 OtherEquipment Internal Gains Nominal, MECH VENT HOUSE FAN LATENT LOAD EQUIP,ALWAYS ON DISCRETE,LIVING SPACE,283.82,3.0,0.000,0.000,0.000,1.000,0.000,0.000,0.000,0.000,0.000
 OtherEquipment Internal Gains Nominal, MECH VENT HOUSE FAN SENSIBLE LOAD EQUIP,ALWAYS ON DISCRETE,LIVING SPACE,283.82,3.0,0.000,0.000,0.000,0.000,0.000,0.000,1.000,0.000,0.000
 OtherEquipment Internal Gains Nominal, WATER HEATER EC ADJUSTMENT,ALWAYS ON DISCRETE,LIVING SPACE,283.82,3.0,1.000E-002,3.523E-005,3.333E-003,0.000,0.000,1.000,0.000,1.000E-002,1.000E-002
 OtherEquipment Internal Gains Nominal, WATER LATENT,FIXTURES,LIVING SPACE,283.82,3.0,1735.128,6.114,578.376,1.000,0.000,0.000,0.000,0.000,379.993
 OtherEquipment Internal Gains Nominal, WATER SENSIBLE,FIXTURES,LIVING SPACE,283.82,3.0,-1710.041,-6.025,-570.014,0.000,0.600,0.000,0.400,0.000,-374.499
! <Solar View Factor Check Values>,Zone/Enclosure Name,Original Check Value,Calculated Fixed Check Value,Final Check Value,Number of Iterations,Fixed RowSum Convergence,Used RowSum Convergence
Solar View Factor Check Values,ATTIC - VENTED,8.881784E-016,9.160727E-004,9.160727E-004,48,9.160727E-004,9.160727E-004
Solar View Factor Check Values,CENTRAL AC AND FURNACE AIRLOOP RET AIR ZONE,2.664535E-015,2.664535E-015,2.664535E-015,1,2.664535E-015,0.000000
Solar View Factor Check Values,CRAWLSPACE - UNVENTED,0.000000,0.794693,0.794693,0,0.794693,0.794693
Solar View Factor Check Values,LIVING SPACE,3.907985E-014,9.768098E-004,9.768098E-004,10,9.768098E-004,9.768098E-004
! <Shadowing/Sun Position Calculations Annual Simulations>, Shading Calculation Method, Shading Calculation Update Frequency Method, Shading Calculation Update Frequency {days}, Maximum Figures in Shadow Overlap Calculations {}, Polygon Clipping Algorithm, Pixel Counting Resolution, Sky Diffuse Modeling Algorithm, Output External Shading Calculation Results, Disable Self-Shading Within Shading Zone Groups, Disable Self-Shading From Shading Zone Groups to Other Zones
Shadowing/Sun Position Calculations Annual Simulations,PolygonClipping,Periodic,20,200,SutherlandHodgman,512,SimpleSkyDiffuseModeling,No,No,No
! <Surface View Factor Check Values>,Zone/Enclosure Name,Original Check Value,Calculated Fixed Check Value,Final Check Value,Number of Iterations,Fixed RowSum Convergence,Used RowSum Convergence
Surface View Factor Check Values,ATTIC - VENTED,8.881784E-016,9.160727E-004,9.160727E-004,48,9.160727E-004,9.160727E-004
Surface View Factor Check Values,CENTRAL AC AND FURNACE AIRLOOP RET AIR ZONE,2.664535E-015,2.664535E-015,2.664535E-015,1,2.664535E-015,0.000000
Surface View Factor Check Values,CRAWLSPACE - UNVENTED,0.000000,0.794693,0.794693,0,0.794693,0.794693
Surface View Factor Check Values,LIVING SPACE,3.907985E-014,9.768098E-004,9.768098E-004,10,9.768098E-004,9.768098E-004
! <ZoneInfiltration Airflow Stats Nominal>,Name,Schedule Name,Zone Name, Zone Floor Area {m2}, # Zone Occupants,Design Volume Flow Rate {m3/s},Volume Flow Rate/Floor Area {m3/s-m2},Volume Flow Rate/Exterior Surface Area {m3/s-m2},ACH - Air Changes per Hour,Equation A - Constant Term Coefficient {},Equation B - Temperature Term Coefficient {1/C},Equation C - Velocity Term Coefficient {s/m}, Equation D - Velocity Squared Term Coefficient {s2/m2}
 ZoneInfiltration Airflow Stats Nominal, INFIL FLOW,ALWAYS ON DISCRETE,LIVING SPACE,283.82,3.0,0.000,0.000,0.000,0.000,1.000,0.000,0.000,0.000
 ZoneInfiltration Airflow Stats Nominal, NATURAL VENT FLOW,ALWAYS ON DISCRETE,LIVING SPACE,283.82,3.0,0.000,0.000,0.000,0.000,1.000,0.000,0.000,0.000
 ZoneInfiltration Airflow Stats Nominal, WHOLE HOUSE FAN FLOW,ALWAYS ON DISCRETE,LIVING SPACE,283.82,3.0,0.000,0.000,0.000,0.000,1.000,0.000,0.000,0.000
 ZoneInfiltration Airflow Stats Nominal, INFIL|ATTIC - VENTED,ALWAYS ON DISCRETE,ATTIC - VENTED,283.82,0.0,0.000,0.000,0.000,0.000,0.000,0.000,0.000,0.000
! <Mixing Airflow Stats Nominal>,Name,Schedule Name,Zone Name, Zone Floor Area {m2}, # Zone Occupants,Design Volume Flow Rate {m3/s},Volume Flow Rate/Floor Area {m3/s-m2},Volume Flow Rate/person Area {m3/s-person},ACH - Air Changes per Hour,From/Source Zone,Delta Temperature {C}
 Mixing Airflow Stats Nominal, WHOLE HOUSE FAN MIX,ALWAYS ON CONTINUOUS,ATTIC - VENTED,283.82,0.0,0.000,0.000,N/A,0.000,LIVING SPACE,0.00
 Mixing Airflow Stats Nominal, CENTRAL_AC_AND_FURNACE_AIRLOOP_0_ZONEMIXLVTODZ MIX,ALWAYS ON CONTINUOUS,CRAWLSPACE - UNVENTED,283.82,0.0,0.000,0.000,N/A,0.000,LIVING SPACE,0.00
 Mixing Airflow Stats Nominal, CENTRAL_AC_AND_FURNACE_AIRLOOP_0_ZONEMIXDZTOLV MIX,ALWAYS ON CONTINUOUS,LIVING SPACE,283.82,3.0,0.000,0.000,0.000,0.000,CRAWLSPACE - UNVENTED,0.00
! <AirFlow Model>, Simple
 AirFlow Model, Simple
! <RoomAir Model>, Zone Name, Mixing/Mundt/UCSDDV/UCSDCV/UCSDUFI/UCSDUFE/User Defined
RoomAir Model,ATTIC - VENTED,Mixing/Well-Stirred
RoomAir Model,CENTRAL AC AND FURNACE AIRLOOP RET AIR ZONE,Mixing/Well-Stirred
RoomAir Model,CRAWLSPACE - UNVENTED,Mixing/Well-Stirred
RoomAir Model,LIVING SPACE,Mixing/Well-Stirred
! <AirflowNetwork Model:Control>, No Multizone or Distribution/Multizone with Distribution/Multizone without Distribution/Multizone with Distribution only during Fan Operation
AirflowNetwork Model:Control,NoMultizoneOrDistribution
! <Water Heater Information>,Type,Name,Volume {m3},Maximum Capacity {W},Standard Rated Recovery Efficiency, Standard Rated Energy Factor
! <Component Sizing Information>, Component Type, Component Name, Input Field Description, Value
 Component Sizing Information, AirTerminal:SingleDuct:ConstantVolume:NoReheat, CENTRAL AC AND FURNACE TERMINAL, User-Specified Maximum Air Flow Rate [m3/s], 0.28967
 Component Sizing Information, AirLoopHVAC:UnitarySystem, CENTRAL AC AND FURNACE UNITARY SYSTEM, User-Specified Supply Air Flow Rate [m3/s], 0.28967
 Component Sizing Information, AirLoopHVAC:UnitarySystem, CENTRAL AC AND FURNACE UNITARY SYSTEM, User-Specified Heating Supply Air Flow Rate [m3/s], 0.24185
 Component Sizing Information, AirLoopHVAC:UnitarySystem, CENTRAL AC AND FURNACE UNITARY SYSTEM, User-Specified Cooling Supply Air Flow Rate [m3/s], 0.28967
 Component Sizing Information, AirLoopHVAC:UnitarySystem, CENTRAL AC AND FURNACE UNITARY SYSTEM, User-Specified No Load Supply Air Flow Rate [m3/s], 0.00000
 Component Sizing Information, AirLoopHVAC:UnitarySystem, CENTRAL AC AND FURNACE UNITARY SYSTEM, User-Specified Nominal Cooling Capacity [W], 4325.77355
 Component Sizing Information, AirLoopHVAC:UnitarySystem, CENTRAL AC AND FURNACE UNITARY SYSTEM, User-Specified Nominal Heating Capacity [W], 8085.52189
 Component Sizing Information, AirLoopHVAC:UnitarySystem, CENTRAL AC AND FURNACE UNITARY SYSTEM, User-Specified Maximum Supply Air Temperature [C], 48.88889
 Component Sizing Information, AirLoopHVAC:UnitarySystem, CENTRAL AC AND FURNACE UNITARY SYSTEM, Fraction of Supply Air Flow That Goes Through the Controlling Zone, 1.00000
 Component Sizing Information, Fan:OnOff, CENTRAL AC AND FURNACE SUPPLY FAN, User-Specified Maximum Flow Rate [m3/s], 0.28967
 Component Sizing Information, Coil:Cooling:DX:SingleSpeed, CENTRAL AC AND FURNACE CLG COIL, User-Specified Rated Air Flow Rate [m3/s], 0.22883
 Component Sizing Information, Coil:Cooling:DX:SingleSpeed, CENTRAL AC AND FURNACE CLG COIL, User-Specified Gross Rated Total Cooling Capacity [W], 4325.77355
 Component Sizing Information, Coil:Cooling:DX:SingleSpeed, CENTRAL AC AND FURNACE CLG COIL, User-Specified Gross Rated Sensible Heat Ratio, 0.74061
! <DX Cooling Coil Standard Rating Information>, Component Type, Component Name, Standard Rating (Net) Cooling Capacity {W}, Standard Rated Net COP {W/W}, EER {Btu/W-h}, SEER User {Btu/W-h}, SEER Standard {Btu/W-h}, IEER {Btu/W-h}
 DX Cooling Coil Standard Rating Information, Coil:Cooling:DX:SingleSpeed, CENTRAL AC AND FURNACE CLG COIL, 4111.7, 3.29, 11.22, 13.19, 11.96, 12.13
 Component Sizing Information, Coil:Heating:Fuel, CENTRAL AC AND FURNACE HTG COIL, User-Specified Nominal Capacity [W], 8085.52189
Water Heater Information,WaterHeater:Mixed,WATER HEATER,0.1438,10550.5,3.796,0.6383
 Component Sizing Information, WaterHeater:Mixed, WATER HEATER, Use Side Design Flow Rate [m3/s], 2.10642E-004
! <Environment>,Environment Name,Environment Type, Start Date, End Date, Start DayOfWeek, Duration {#days}, Source:Start DayOfWeek,  Use Daylight Saving, Use Holidays, Apply Weekend Holiday Rule,  Use Rain Values, Use Snow Values, Sky Temperature Model
! <Environment:Special Days>, Special Day Name, Special Day Type, Source, Start Date, Duration {#days}
! <Environment:Daylight Saving>, Daylight Saving Indicator, Source, Start Date, End Date
! <Environment:WarmupDays>, NumberofWarmupDays
Environment,RUN PERIOD 1,WeatherFileRunPeriod,01/01/2017,12/31/2017,Sunday,365,Use RunPeriod Specified Day,No,No,No,Yes,Yes,Clark and Allen
Environment:Daylight Saving,Yes,InputFile,03/12,11/05
Environment:WarmupDays,  3
! <Tabular Report>,Style,Unit Conversion
Tabular Report,HTML,None
! <Warmup Convergence Information>,Zone Name,Environment Type/Name,Average Warmup Temperature Difference {deltaC},Std Dev Warmup Temperature Difference {deltaC},Max Temperature Pass/Fail Convergence,Min Temperature Pass/Fail Convergence,Average Warmup Load Difference {W},Std Dev Warmup Load Difference {W},Heating Load Pass/Fail Convergence,Cooling Load Pass/Fail Convergence
 Warmup Convergence Information,ATTIC - VENTED,RunPeriod: RUN PERIOD 1,0.4431169659,0.3606870914,Pass,Pass,0.0000000000,0.0000000000,Pass,Pass
 Warmup Convergence Information,CENTRAL AC AND FURNACE AIRLOOP RET AIR ZONE,RunPeriod: RUN PERIOD 1,6.2368520789E-003,3.9367496353E-003,Pass,Pass,0.1585747783,9.3131724732E-002,Pass,Pass
 Warmup Convergence Information,CRAWLSPACE - UNVENTED,RunPeriod: RUN PERIOD 1,0.1519668957,0.1326837737,Pass,Pass,0.0000000000,0.0000000000,Pass,Pass
 Warmup Convergence Information,LIVING SPACE,RunPeriod: RUN PERIOD 1,1.2487671887E-005,1.6839061724E-005,Pass,Pass,0.1413444302,0.1183199464,Pass,Pass
! <Program Control Information:Threads/Parallel Sims>, Threading Supported,Maximum Number of Threads, Env Set Threads (OMP_NUM_THREADS), EP Env Set Threads (EP_OMP_NUM_THREADS), IDF Set Threads, Number of Threads Used (Interior Radiant Exchange), Number Nominal Surfaces, Number Parallel Sims
Program Control:Threads/Parallel Sims, No,1, N/A, N/A, N/A, N/A, N/A, N/A
End of Data
