Program Version,EnergyPlus, Version 9.4.0-998c4b761e, YMD=2021.04.05 22:23
! This file shows details about the branches, nodes, and other
! elements of the flow connections.
! This file is intended for use in "debugging" potential problems
! that may also be detected by the program, but may be more easily
! identified by "eye".
! This file is also intended to support software which draws a
! schematic diagram of the HVAC system.
! ===============================================================
! #Nodes,<Number of Unique Nodes>
 #Nodes,286
! <Node>,<NodeNumber>,<Node Name>,<Node Fluid Type>,<# Times Node Referenced After Definition>
 Node,1,BUILDING STORY 1 THERMALZONE VAV TERMINAL OUTLET AIR NODE,Air,4
 Node,2,BUILDING STORY 1 THERMALZONE RETURN AIR NODE,Air,2
 Node,3,BUILDING STORY 10 THERMALZONE VAV TERMINAL OUTLET AIR NODE,Air,4
 Node,4,BUILDING STORY 10 THERMALZONE RETURN AIR NODE,Air,2
 Node,5,BUILDING STORY 2 THERMALZONE VAV TERMINAL OUTLET AIR NODE,Air,4
 Node,6,BUILDING STORY 2 THERMALZONE RETURN AIR NODE,Air,2
 Node,7,BUILDING STORY 3 THERMALZONE VAV TERMINAL OUTLET AIR NODE,Air,4
 Node,8,BUILDING STORY 3 THERMALZONE RETURN AIR NODE,Air,2
 Node,9,BUILDING STORY 4 THERMALZONE VAV TERMINAL OUTLET AIR NODE,Air,4
 Node,10,BUILDING STORY 4 THERMALZONE RETURN AIR NODE,Air,2
 Node,11,BUILDING STORY 5 THERMALZONE VAV TERMINAL OUTLET AIR NODE,Air,4
 Node,12,BUILDING STORY 5 THERMALZONE RETURN AIR NODE,Air,2
 Node,13,BUILDING STORY 6 THERMALZONE VAV TERMINAL OUTLET AIR NODE,Air,4
 Node,14,BUILDING STORY 6 THERMALZONE RETURN AIR NODE,Air,2
 Node,15,BUILDING STORY 7 THERMALZONE VAV TERMINAL OUTLET AIR NODE,Air,4
 Node,16,BUILDING STORY 7 THERMALZONE RETURN AIR NODE,Air,2
 Node,17,BUILDING STORY 8 THERMALZONE VAV TERMINAL OUTLET AIR NODE,Air,4
 Node,18,BUILDING STORY 8 THERMALZONE RETURN AIR NODE,Air,2
 Node,19,BUILDING STORY 9 THERMALZONE VAV TERMINAL OUTLET AIR NODE,Air,4
 Node,20,BUILDING STORY 9 THERMALZONE RETURN AIR NODE,Air,2
 Node,21,1 ZONE VAV SUPPLY OUTLET NODE,Air,10
 Node,22,1 ZONE VAV DEMAND INLET NODE,Air,3
 Node,23,1 ZONE VAV 1 SUPPLY OUTLET NODE,Air,10
 Node,24,1 ZONE VAV 1 DEMAND INLET NODE,Air,3
 Node,25,1 ZONE VAV 2 SUPPLY OUTLET NODE,Air,10
 Node,26,1 ZONE VAV 2 DEMAND INLET NODE,Air,3
 Node,27,1 ZONE VAV 3 SUPPLY OUTLET NODE,Air,10
 Node,28,1 ZONE VAV 3 DEMAND INLET NODE,Air,3
 Node,29,1 ZONE VAV 4 SUPPLY OUTLET NODE,Air,10
 Node,30,1 ZONE VAV 4 DEMAND INLET NODE,Air,3
 Node,31,1 ZONE VAV 5 SUPPLY OUTLET NODE,Air,10
 Node,32,1 ZONE VAV 5 DEMAND INLET NODE,Air,3
 Node,33,1 ZONE VAV 6 SUPPLY OUTLET NODE,Air,10
 Node,34,1 ZONE VAV 6 DEMAND INLET NODE,Air,3
 Node,35,1 ZONE VAV 7 SUPPLY OUTLET NODE,Air,10
 Node,36,1 ZONE VAV 7 DEMAND INLET NODE,Air,3
 Node,37,1 ZONE VAV 8 SUPPLY OUTLET NODE,Air,10
 Node,38,1 ZONE VAV 8 DEMAND INLET NODE,Air,3
 Node,39,1 ZONE VAV 9 SUPPLY OUTLET NODE,Air,10
 Node,40,1 ZONE VAV 9 DEMAND INLET NODE,Air,3
 Node,41,1 ZONE VAV SUPPLY INLET NODE,Air,3
 Node,42,1 ZONE VAV MIXED AIR NODE,Air,5
 Node,43,1 ZONE VAV CLG COIL OUTLET AIR NODE,Air,5
 Node,44,1 ZONE VAV MAIN HTG COIL OUTLET AIR NODE,Air,8
 Node,45,1 ZONE VAV 1 SUPPLY INLET NODE,Air,3
 Node,46,1 ZONE VAV 1 MIXED AIR NODE,Air,5
 Node,47,1 ZONE VAV 1 CLG COIL OUTLET AIR NODE,Air,5
 Node,48,1 ZONE VAV 1 MAIN HTG COIL OUTLET AIR NODE,Air,8
 Node,49,1 ZONE VAV 2 SUPPLY INLET NODE,Air,3
 Node,50,1 ZONE VAV 2 MIXED AIR NODE,Air,5
 Node,51,1 ZONE VAV 2 CLG COIL OUTLET AIR NODE,Air,5
 Node,52,1 ZONE VAV 2 MAIN HTG COIL OUTLET AIR NODE,Air,8
 Node,53,1 ZONE VAV 3 SUPPLY INLET NODE,Air,3
 Node,54,1 ZONE VAV 3 MIXED AIR NODE,Air,5
 Node,55,1 ZONE VAV 3 CLG COIL OUTLET AIR NODE,Air,5
 Node,56,1 ZONE VAV 3 MAIN HTG COIL OUTLET AIR NODE,Air,8
 Node,57,1 ZONE VAV 4 SUPPLY INLET NODE,Air,3
 Node,58,1 ZONE VAV 4 MIXED AIR NODE,Air,5
 Node,59,1 ZONE VAV 4 CLG COIL OUTLET AIR NODE,Air,5
 Node,60,1 ZONE VAV 4 MAIN HTG COIL OUTLET AIR NODE,Air,8
 Node,61,1 ZONE VAV 5 SUPPLY INLET NODE,Air,3
 Node,62,1 ZONE VAV 5 MIXED AIR NODE,Air,5
 Node,63,1 ZONE VAV 5 CLG COIL OUTLET AIR NODE,Air,5
 Node,64,1 ZONE VAV 5 MAIN HTG COIL OUTLET AIR NODE,Air,8
 Node,65,1 ZONE VAV 6 SUPPLY INLET NODE,Air,3
 Node,66,1 ZONE VAV 6 MIXED AIR NODE,Air,5
 Node,67,1 ZONE VAV 6 CLG COIL OUTLET AIR NODE,Air,5
 Node,68,1 ZONE VAV 6 MAIN HTG COIL OUTLET AIR NODE,Air,8
 Node,69,1 ZONE VAV 7 SUPPLY INLET NODE,Air,3
 Node,70,1 ZONE VAV 7 MIXED AIR NODE,Air,5
 Node,71,1 ZONE VAV 7 CLG COIL OUTLET AIR NODE,Air,5
 Node,72,1 ZONE VAV 7 MAIN HTG COIL OUTLET AIR NODE,Air,8
 Node,73,1 ZONE VAV 8 SUPPLY INLET NODE,Air,3
 Node,74,1 ZONE VAV 8 MIXED AIR NODE,Air,5
 Node,75,1 ZONE VAV 8 CLG COIL OUTLET AIR NODE,Air,5
 Node,76,1 ZONE VAV 8 MAIN HTG COIL OUTLET AIR NODE,Air,8
 Node,77,1 ZONE VAV 9 SUPPLY INLET NODE,Air,3
 Node,78,1 ZONE VAV 9 MIXED AIR NODE,Air,5
 Node,79,1 ZONE VAV 9 CLG COIL OUTLET AIR NODE,Air,5
 Node,80,1 ZONE VAV 9 MAIN HTG COIL OUTLET AIR NODE,Air,8
 Node,81,CHILLED WATER LOOP SUPPLY INLET NODE,Water,2
 Node,82,CHILLED WATER LOOP PRIMARY PUMP OUTLET WATER NODE,Water,1
 Node,83,90.1-2004 WATERCOOLED  ROTARY SCREW CHILLER 0 SUPPLY INLET WATER NODE,Water,1
 Node,84,90.1-2004 WATERCOOLED  ROTARY SCREW CHILLER 0 SUPPLY OUTLET WATER NODE,Water,1
 Node,85,CHILLED WATER LOOP CHILLER BYPASS INLET WATER NODE,Water,1
 Node,86,CHILLED WATER LOOP CHILLER BYPASS OUTLET WATER NODE,Water,1
 Node,87,CHILLED WATER LOOP SUPPLY OUTLET INLET WATER NODE,Water,1
 Node,88,CHILLED WATER LOOP SUPPLY OUTLET NODE,Water,4
 Node,89,CHILLED WATER LOOP DEMAND INLET NODE,Water,2
 Node,90,CHILLED WATER LOOP SECONDARY PUMP INLET WATER NODE,Water,3
 Node,91,CHILLED WATER LOOP SECONDARY PUMP OUTLET WATER NODE,Water,1
 Node,92,CHILLED WATER LOOP COIL BYPASS INLET WATER NODE,Water,1
 Node,93,CHILLED WATER LOOP COIL BYPASS OUTLET WATER NODE,Water,1
 Node,94,1 ZONE VAV CLG COIL INLET WATER NODE,Water,2
 Node,95,1 ZONE VAV CLG COIL OUTLET WATER NODE,Water,1
 Node,96,1 ZONE VAV 1 CLG COIL INLET WATER NODE,Water,2
 Node,97,1 ZONE VAV 1 CLG COIL OUTLET WATER NODE,Water,1
 Node,98,1 ZONE VAV 2 CLG COIL INLET WATER NODE,Water,2
 Node,99,1 ZONE VAV 2 CLG COIL OUTLET WATER NODE,Water,1
 Node,100,1 ZONE VAV 3 CLG COIL INLET WATER NODE,Water,2
 Node,101,1 ZONE VAV 3 CLG COIL OUTLET WATER NODE,Water,1
 Node,102,1 ZONE VAV 4 CLG COIL INLET WATER NODE,Water,2
 Node,103,1 ZONE VAV 4 CLG COIL OUTLET WATER NODE,Water,1
 Node,104,1 ZONE VAV 5 CLG COIL INLET WATER NODE,Water,2
 Node,105,1 ZONE VAV 5 CLG COIL OUTLET WATER NODE,Water,1
 Node,106,1 ZONE VAV 6 CLG COIL INLET WATER NODE,Water,2
 Node,107,1 ZONE VAV 6 CLG COIL OUTLET WATER NODE,Water,1
 Node,108,1 ZONE VAV 7 CLG COIL INLET WATER NODE,Water,2
 Node,109,1 ZONE VAV 7 CLG COIL OUTLET WATER NODE,Water,1
 Node,110,1 ZONE VAV 8 CLG COIL INLET WATER NODE,Water,2
 Node,111,1 ZONE VAV 8 CLG COIL OUTLET WATER NODE,Water,1
 Node,112,1 ZONE VAV 9 CLG COIL INLET WATER NODE,Water,2
 Node,113,1 ZONE VAV 9 CLG COIL OUTLET WATER NODE,Water,1
 Node,114,CHILLED WATER LOOP DEMAND BYPASS PIPE INLET NODE,Water,1
 Node,115,CHILLED WATER LOOP DEMAND BYPASS PIPE OUTLET NODE,Water,1
 Node,116,CHILLED WATER LOOP DEMAND OUTLET INLET WATER NODE,Water,1
 Node,117,CHILLED WATER LOOP DEMAND OUTLET NODE,Water,2
 Node,118,CONDENSER WATER LOOP SUPPLY INLET NODE,Water,2
 Node,119,CONDENSER WATER LOOP CONSTANT PUMP OUTLET WATER NODE,Water,1
 Node,120,PROPELLER OR AXIAL TWOSPEED FAN OPEN COOLING TOWER INLET WATER NODE,Water,1
 Node,121,PROPELLER OR AXIAL TWOSPEED FAN OPEN COOLING TOWER OUTLET WATER NODE,Water,1
 Node,122,CONDENSER WATER LOOP COOLING TOWER BYPASS INLET WATER NODE,Water,1
 Node,123,CONDENSER WATER LOOP COOLING TOWER BYPASS OUTLET WATER NODE,Water,1
 Node,124,CONDENSER WATER LOOP SUPPLY OUTLET INLET WATER NODE,Water,1
 Node,125,CONDENSER WATER LOOP SUPPLY OUTLET NODE,Water,4
 Node,126,CONDENSER WATER LOOP DEMAND INLET NODE,Water,2
 Node,127,CONDENSER WATER LOOP DEMAND INLET OUTLET WATER NODE,Water,1
 Node,128,CONDENSER WATER LOOP CHILLER BYPASS INLET WATER NODE,Water,1
 Node,129,CONDENSER WATER LOOP CHILLER BYPASS OUTLET WATER NODE,Water,1
 Node,130,90.1-2004 WATERCOOLED  ROTARY SCREW CHILLER 0 DEMAND INLET WATER NODE,Water,1
 Node,131,90.1-2004 WATERCOOLED  ROTARY SCREW CHILLER 0 DEMAND OUTLET WATER NODE,Water,1
 Node,132,CONDENSER WATER LOOP DEMAND BYPASS PIPE INLET NODE,Water,1
 Node,133,CONDENSER WATER LOOP DEMAND BYPASS PIPE OUTLET NODE,Water,1
 Node,134,CONDENSER WATER LOOP DEMAND OUTLET INLET WATER NODE,Water,1
 Node,135,CONDENSER WATER LOOP DEMAND OUTLET NODE,Water,2
 Node,136,HOT WATER LOOP SUPPLY INLET NODE,Water,2
 Node,137,HOT WATER LOOP PUMP OUTLET WATER NODE,Water,1
 Node,138,BOILER INLET WATER NODE,Water,1
 Node,139,BOILER OUTLET WATER NODE,Water,1
 Node,140,HOT WATER LOOP SUPPLY EQUIPMENT BYPASS INLET WATER NODE,Water,1
 Node,141,HOT WATER LOOP SUPPLY EQUIPMENT BYPASS OUTLET WATER NODE,Water,1
 Node,142,HOT WATER LOOP SUPPLY OUTLET INLET WATER NODE,Water,1
 Node,143,HOT WATER LOOP SUPPLY OUTLET NODE,Water,4
 Node,144,HOT WATER LOOP DEMAND INLET NODE,Water,2
 Node,145,HOT WATER LOOP DEMAND INLET OUTLET WATER NODE,Water,1
 Node,146,HOT WATER LOOP COIL BYPASS INLET WATER NODE,Water,1
 Node,147,HOT WATER LOOP COIL BYPASS OUTLET WATER NODE,Water,1
 Node,148,1 ZONE VAV MAIN HTG COIL INLET WATER NODE,Water,2
 Node,149,1 ZONE VAV MAIN HTG COIL OUTLET WATER NODE,Water,1
 Node,150,BUILDING STORY 1 THERMALZONE REHEAT COIL INLET WATER NODE,Water,1
 Node,151,BUILDING STORY 1 THERMALZONE REHEAT COIL OUTLET WATER NODE,Water,1
 Node,152,1 ZONE VAV 1 MAIN HTG COIL INLET WATER NODE,Water,2
 Node,153,1 ZONE VAV 1 MAIN HTG COIL OUTLET WATER NODE,Water,1
 Node,154,BUILDING STORY 10 THERMALZONE REHEAT COIL INLET WATER NODE,Water,1
 Node,155,BUILDING STORY 10 THERMALZONE REHEAT COIL OUTLET WATER NODE,Water,1
 Node,156,1 ZONE VAV 2 MAIN HTG COIL INLET WATER NODE,Water,2
 Node,157,1 ZONE VAV 2 MAIN HTG COIL OUTLET WATER NODE,Water,1
 Node,158,BUILDING STORY 2 THERMALZONE REHEAT COIL INLET WATER NODE,Water,1
 Node,159,BUILDING STORY 2 THERMALZONE REHEAT COIL OUTLET WATER NODE,Water,1
 Node,160,1 ZONE VAV 3 MAIN HTG COIL INLET WATER NODE,Water,2
 Node,161,1 ZONE VAV 3 MAIN HTG COIL OUTLET WATER NODE,Water,1
 Node,162,BUILDING STORY 3 THERMALZONE REHEAT COIL INLET WATER NODE,Water,1
 Node,163,BUILDING STORY 3 THERMALZONE REHEAT COIL OUTLET WATER NODE,Water,1
 Node,164,1 ZONE VAV 4 MAIN HTG COIL INLET WATER NODE,Water,2
 Node,165,1 ZONE VAV 4 MAIN HTG COIL OUTLET WATER NODE,Water,1
 Node,166,BUILDING STORY 4 THERMALZONE REHEAT COIL INLET WATER NODE,Water,1
 Node,167,BUILDING STORY 4 THERMALZONE REHEAT COIL OUTLET WATER NODE,Water,1
 Node,168,1 ZONE VAV 5 MAIN HTG COIL INLET WATER NODE,Water,2
 Node,169,1 ZONE VAV 5 MAIN HTG COIL OUTLET WATER NODE,Water,1
 Node,170,BUILDING STORY 5 THERMALZONE REHEAT COIL INLET WATER NODE,Water,1
 Node,171,BUILDING STORY 5 THERMALZONE REHEAT COIL OUTLET WATER NODE,Water,1
 Node,172,1 ZONE VAV 6 MAIN HTG COIL INLET WATER NODE,Water,2
 Node,173,1 ZONE VAV 6 MAIN HTG COIL OUTLET WATER NODE,Water,1
 Node,174,BUILDING STORY 6 THERMALZONE REHEAT COIL INLET WATER NODE,Water,1
 Node,175,BUILDING STORY 6 THERMALZONE REHEAT COIL OUTLET WATER NODE,Water,1
 Node,176,1 ZONE VAV 7 MAIN HTG COIL INLET WATER NODE,Water,2
 Node,177,1 ZONE VAV 7 MAIN HTG COIL OUTLET WATER NODE,Water,1
 Node,178,BUILDING STORY 7 THERMALZONE REHEAT COIL INLET WATER NODE,Water,1
 Node,179,BUILDING STORY 7 THERMALZONE REHEAT COIL OUTLET WATER NODE,Water,1
 Node,180,1 ZONE VAV 8 MAIN HTG COIL INLET WATER NODE,Water,2
 Node,181,1 ZONE VAV 8 MAIN HTG COIL OUTLET WATER NODE,Water,1
 Node,182,BUILDING STORY 8 THERMALZONE REHEAT COIL INLET WATER NODE,Water,1
 Node,183,BUILDING STORY 8 THERMALZONE REHEAT COIL OUTLET WATER NODE,Water,1
 Node,184,1 ZONE VAV 9 MAIN HTG COIL INLET WATER NODE,Water,2
 Node,185,1 ZONE VAV 9 MAIN HTG COIL OUTLET WATER NODE,Water,1
 Node,186,BUILDING STORY 9 THERMALZONE REHEAT COIL INLET WATER NODE,Water,1
 Node,187,BUILDING STORY 9 THERMALZONE REHEAT COIL OUTLET WATER NODE,Water,1
 Node,188,HOT WATER LOOP DEMAND BYPASS PIPE INLET NODE,Water,1
 Node,189,HOT WATER LOOP DEMAND BYPASS PIPE OUTLET NODE,Water,1
 Node,190,HOT WATER LOOP DEMAND OUTLET INLET WATER NODE,Water,1
 Node,191,HOT WATER LOOP DEMAND OUTLET NODE,Water,2
 Node,192,OUTPATIENT SHARED SERVICE WATER LOOP SUPPLY INLET NODE,Water,2
 Node,193,OUTPATIENT SHARED SERVICE WATER LOOP CIRCULATOR PUMP OUTLET WATER NODE,Water,1
 Node,194,555GAL NATURALGAS WATER HEATER - 555KBTU/HR SUPPLY INLET WATER NODE,Water,1
 Node,195,555GAL NATURALGAS WATER HEATER - 555KBTU/HR SUPPLY OUTLET WATER NODE,Water,1
 Node,196,PIPE ADIABATIC 1 INLET WATER NODE,Water,1
 Node,197,PIPE ADIABATIC 1 OUTLET WATER NODE,Water,1
 Node,198,PIPE ADIABATIC 3 INLET WATER NODE,Water,1
 Node,199,OUTPATIENT SHARED SERVICE WATER LOOP SUPPLY OUTLET NODE,Water,4
 Node,200,OUTPATIENT SHARED SERVICE WATER LOOP DEMAND INLET NODE,Water,2
 Node,201,OUTPATIENT SHARED SERVICE WATER LOOP PIPE 581.5968127363554FT OUTLET WATER NODE,Water,1
 Node,202,PIPE ADIABATIC 2 INLET WATER NODE,Water,1
 Node,203,PIPE ADIABATIC 2 OUTLET WATER NODE,Water,1
 Node,204,OUTPATIENT ANESTHESIA - 90.1-2004 WUC 0.35GPM AT 140F INLET WATER NODE,Water,1
 Node,205,OUTPATIENT ANESTHESIA - 90.1-2004 WUC 0.35GPM AT 140F OUTLET WATER NODE,Water,1
 Node,206,OUTPATIENT MRI - 90.1-2004 WUC 0.36GPM AT 140F INLET WATER NODE,Water,1
 Node,207,OUTPATIENT MRI - 90.1-2004 WUC 0.36GPM AT 140F OUTLET WATER NODE,Water,1
 Node,208,OUTPATIENT MRI_CONTROL - 90.1-2004 WUC 0.36GPM AT 140F INLET WATER NODE,Water,1
 Node,209,OUTPATIENT MRI_CONTROL - 90.1-2004 WUC 0.36GPM AT 140F OUTLET WATER NODE,Water,1
 Node,210,OUTPATIENT OR - 90.1-2004 WUC 6.45GPM AT 140F INLET WATER NODE,Water,1
 Node,211,OUTPATIENT OR - 90.1-2004 WUC 6.45GPM AT 140F OUTLET WATER NODE,Water,1
 Node,212,OUTPATIENT PACU - 90.1-2004 WUC 1.08GPM AT 140F INLET WATER NODE,Water,1
 Node,213,OUTPATIENT PACU - 90.1-2004 WUC 1.08GPM AT 140F OUTLET WATER NODE,Water,1
 Node,214,OUTPATIENT PHYSICALTHERAPY - 90.1-2004 WUC 0.72GPM AT 140F INLET WATER NODE,Water,1
 Node,215,OUTPATIENT PHYSICALTHERAPY - 90.1-2004 WUC 0.72GPM AT 140F OUTLET WATER NODE,Water,1
 Node,216,OUTPATIENT PREOP - 90.1-2004 WUC 0.72GPM AT 140F INLET WATER NODE,Water,1
 Node,217,OUTPATIENT PREOP - 90.1-2004 WUC 0.72GPM AT 140F OUTLET WATER NODE,Water,1
 Node,218,OUTPATIENT PROCEDUREROOM - 90.1-2004 WUC 0.36GPM AT 140F INLET WATER NODE,Water,1
 Node,219,OUTPATIENT PROCEDUREROOM - 90.1-2004 WUC 0.36GPM AT 140F OUTLET WATER NODE,Water,1
 Node,220,OUTPATIENT XRAY - 90.1-2004 WUC 0.36GPM AT 140F INLET WATER NODE,Water,1
 Node,221,OUTPATIENT XRAY - 90.1-2004 WUC 0.36GPM AT 140F OUTLET WATER NODE,Water,1
 Node,222,OUTPATIENT SHARED SERVICE WATER LOOP DEMAND BYPASS PIPE INLET NODE,Water,1
 Node,223,OUTPATIENT SHARED SERVICE WATER LOOP DEMAND BYPASS PIPE OUTLET NODE,Water,1
 Node,224,PIPE ADIABATIC 4 INLET WATER NODE,Water,1
 Node,225,OUTPATIENT SHARED SERVICE WATER LOOP DEMAND OUTLET NODE,Water,2
 Node,226,BUILDING STORY 1 THERMALZONE ZONE AIR NODE,Air,0
 Node,227,BUILDING STORY 10 THERMALZONE ZONE AIR NODE,Air,0
 Node,228,BUILDING STORY 2 THERMALZONE ZONE AIR NODE,Air,0
 Node,229,BUILDING STORY 3 THERMALZONE ZONE AIR NODE,Air,0
 Node,230,BUILDING STORY 4 THERMALZONE ZONE AIR NODE,Air,0
 Node,231,BUILDING STORY 5 THERMALZONE ZONE AIR NODE,Air,0
 Node,232,BUILDING STORY 6 THERMALZONE ZONE AIR NODE,Air,0
 Node,233,BUILDING STORY 7 THERMALZONE ZONE AIR NODE,Air,0
 Node,234,BUILDING STORY 8 THERMALZONE ZONE AIR NODE,Air,0
 Node,235,BUILDING STORY 9 THERMALZONE ZONE AIR NODE,Air,0
 Node,236,1 ZONE VAV DEMAND OUTLET NODE,Air,2
 Node,237,1 ZONE VAV 1 DEMAND OUTLET NODE,Air,2
 Node,238,1 ZONE VAV 2 DEMAND OUTLET NODE,Air,2
 Node,239,1 ZONE VAV 3 DEMAND OUTLET NODE,Air,2
 Node,240,1 ZONE VAV 4 DEMAND OUTLET NODE,Air,2
 Node,241,1 ZONE VAV 5 DEMAND OUTLET NODE,Air,2
 Node,242,1 ZONE VAV 6 DEMAND OUTLET NODE,Air,2
 Node,243,1 ZONE VAV 7 DEMAND OUTLET NODE,Air,2
 Node,244,1 ZONE VAV 8 DEMAND OUTLET NODE,Air,2
 Node,245,1 ZONE VAV 9 DEMAND OUTLET NODE,Air,2
 Node,246,1 ZONE VAV OUTDOOR AIR NODE,Air,2
 Node,247,1 ZONE VAV 1 OUTDOOR AIR NODE,Air,2
 Node,248,1 ZONE VAV 2 OUTDOOR AIR NODE,Air,2
 Node,249,1 ZONE VAV 3 OUTDOOR AIR NODE,Air,2
 Node,250,1 ZONE VAV 4 OUTDOOR AIR NODE,Air,2
 Node,251,1 ZONE VAV 5 OUTDOOR AIR NODE,Air,2
 Node,252,1 ZONE VAV 6 OUTDOOR AIR NODE,Air,2
 Node,253,1 ZONE VAV 7 OUTDOOR AIR NODE,Air,2
 Node,254,1 ZONE VAV 8 OUTDOOR AIR NODE,Air,2
 Node,255,1 ZONE VAV 9 OUTDOOR AIR NODE,Air,2
 Node,256,MODEL OUTDOOR AIR NODE,Air,0
 Node,257,BUILDING STORY 1 THERMALZONE VAV TERMINAL INLET AIR NODE,Air,1
 Node,258,BUILDING STORY 10 THERMALZONE VAV TERMINAL INLET AIR NODE,Air,1
 Node,259,BUILDING STORY 2 THERMALZONE VAV TERMINAL INLET AIR NODE,Air,1
 Node,260,BUILDING STORY 3 THERMALZONE VAV TERMINAL INLET AIR NODE,Air,1
 Node,261,BUILDING STORY 4 THERMALZONE VAV TERMINAL INLET AIR NODE,Air,1
 Node,262,BUILDING STORY 5 THERMALZONE VAV TERMINAL INLET AIR NODE,Air,1
 Node,263,BUILDING STORY 6 THERMALZONE VAV TERMINAL INLET AIR NODE,Air,1
 Node,264,BUILDING STORY 7 THERMALZONE VAV TERMINAL INLET AIR NODE,Air,1
 Node,265,BUILDING STORY 8 THERMALZONE VAV TERMINAL INLET AIR NODE,Air,1
 Node,266,BUILDING STORY 9 THERMALZONE VAV TERMINAL INLET AIR NODE,Air,1
 Node,267,BUILDING STORY 1 THERMALZONE VAV TERMINAL DAMPER OUTLET,Air,1
 Node,268,BUILDING STORY 10 THERMALZONE VAV TERMINAL DAMPER OUTLET,Air,1
 Node,269,BUILDING STORY 2 THERMALZONE VAV TERMINAL DAMPER OUTLET,Air,1
 Node,270,BUILDING STORY 3 THERMALZONE VAV TERMINAL DAMPER OUTLET,Air,1
 Node,271,BUILDING STORY 4 THERMALZONE VAV TERMINAL DAMPER OUTLET,Air,1
 Node,272,BUILDING STORY 5 THERMALZONE VAV TERMINAL DAMPER OUTLET,Air,1
 Node,273,BUILDING STORY 6 THERMALZONE VAV TERMINAL DAMPER OUTLET,Air,1
 Node,274,BUILDING STORY 7 THERMALZONE VAV TERMINAL DAMPER OUTLET,Air,1
 Node,275,BUILDING STORY 8 THERMALZONE VAV TERMINAL DAMPER OUTLET,Air,1
 Node,276,BUILDING STORY 9 THERMALZONE VAV TERMINAL DAMPER OUTLET,Air,1
 Node,277,1 ZONE VAV RELIEF AIR NODE,Air,1
 Node,278,1 ZONE VAV 1 RELIEF AIR NODE,Air,1
 Node,279,1 ZONE VAV 2 RELIEF AIR NODE,Air,1
 Node,280,1 ZONE VAV 3 RELIEF AIR NODE,Air,1
 Node,281,1 ZONE VAV 4 RELIEF AIR NODE,Air,1
 Node,282,1 ZONE VAV 5 RELIEF AIR NODE,Air,1
 Node,283,1 ZONE VAV 6 RELIEF AIR NODE,Air,1
 Node,284,1 ZONE VAV 7 RELIEF AIR NODE,Air,1
 Node,285,1 ZONE VAV 8 RELIEF AIR NODE,Air,1
 Node,286,1 ZONE VAV 9 RELIEF AIR NODE,Air,1
! ===============================================================
! Suspicious nodes have 0 references.  It is normal for some nodes, however.
! Listing nodes with 0 references (culled from previous list):
! <Suspicious Node>,<NodeNumber>,<Node Name>,<Node Fluid Type>,<# Times Node Referenced After Definition>
 Suspicious Node,226,BUILDING STORY 1 THERMALZONE ZONE AIR NODE,Air,0
 Suspicious Node,227,BUILDING STORY 10 THERMALZONE ZONE AIR NODE,Air,0
 Suspicious Node,228,BUILDING STORY 2 THERMALZONE ZONE AIR NODE,Air,0
 Suspicious Node,229,BUILDING STORY 3 THERMALZONE ZONE AIR NODE,Air,0
 Suspicious Node,230,BUILDING STORY 4 THERMALZONE ZONE AIR NODE,Air,0
 Suspicious Node,231,BUILDING STORY 5 THERMALZONE ZONE AIR NODE,Air,0
 Suspicious Node,232,BUILDING STORY 6 THERMALZONE ZONE AIR NODE,Air,0
 Suspicious Node,233,BUILDING STORY 7 THERMALZONE ZONE AIR NODE,Air,0
 Suspicious Node,234,BUILDING STORY 8 THERMALZONE ZONE AIR NODE,Air,0
 Suspicious Node,235,BUILDING STORY 9 THERMALZONE ZONE AIR NODE,Air,0
 Suspicious Node,256,MODEL OUTDOOR AIR NODE,Air,0
! ===============================================================
! <#Branch Lists>,<Number of Branch Lists>
 #Branch Lists,18
! <Branch List>,<Branch List Count>,<Branch List Name>,<Loop Name>,<Loop Type>,<Number of Branches>
! <Branch>,<Branch Count>,<Branch Name>,<Loop Name>,<Loop Type>,<Branch Inlet Node Name>,<Branch Outlet Node Name>
 Branch List,1,1 ZONE VAV SUPPLY BRANCHES,1 ZONE VAV,Air,1
   Branch,1,1 ZONE VAV MAIN BRANCH,1 ZONE VAV,Air,1 ZONE VAV SUPPLY INLET NODE,1 ZONE VAV SUPPLY OUTLET NODE
 Branch List,2,1 ZONE VAV 1 SUPPLY BRANCHES,1 ZONE VAV 1,Air,1
   Branch,1,1 ZONE VAV 1 MAIN BRANCH,1 ZONE VAV 1,Air,1 ZONE VAV 1 SUPPLY INLET NODE,1 ZONE VAV 1 SUPPLY OUTLET NODE
 Branch List,3,1 ZONE VAV 2 SUPPLY BRANCHES,1 ZONE VAV 2,Air,1
   Branch,1,1 ZONE VAV 2 MAIN BRANCH,1 ZONE VAV 2,Air,1 ZONE VAV 2 SUPPLY INLET NODE,1 ZONE VAV 2 SUPPLY OUTLET NODE
 Branch List,4,1 ZONE VAV 3 SUPPLY BRANCHES,1 ZONE VAV 3,Air,1
   Branch,1,1 ZONE VAV 3 MAIN BRANCH,1 ZONE VAV 3,Air,1 ZONE VAV 3 SUPPLY INLET NODE,1 ZONE VAV 3 SUPPLY OUTLET NODE
 Branch List,5,1 ZONE VAV 4 SUPPLY BRANCHES,1 ZONE VAV 4,Air,1
   Branch,1,1 ZONE VAV 4 MAIN BRANCH,1 ZONE VAV 4,Air,1 ZONE VAV 4 SUPPLY INLET NODE,1 ZONE VAV 4 SUPPLY OUTLET NODE
 Branch List,6,1 ZONE VAV 5 SUPPLY BRANCHES,1 ZONE VAV 5,Air,1
   Branch,1,1 ZONE VAV 5 MAIN BRANCH,1 ZONE VAV 5,Air,1 ZONE VAV 5 SUPPLY INLET NODE,1 ZONE VAV 5 SUPPLY OUTLET NODE
 Branch List,7,1 ZONE VAV 6 SUPPLY BRANCHES,1 ZONE VAV 6,Air,1
   Branch,1,1 ZONE VAV 6 MAIN BRANCH,1 ZONE VAV 6,Air,1 ZONE VAV 6 SUPPLY INLET NODE,1 ZONE VAV 6 SUPPLY OUTLET NODE
 Branch List,8,1 ZONE VAV 7 SUPPLY BRANCHES,1 ZONE VAV 7,Air,1
   Branch,1,1 ZONE VAV 7 MAIN BRANCH,1 ZONE VAV 7,Air,1 ZONE VAV 7 SUPPLY INLET NODE,1 ZONE VAV 7 SUPPLY OUTLET NODE
 Branch List,9,1 ZONE VAV 8 SUPPLY BRANCHES,1 ZONE VAV 8,Air,1
   Branch,1,1 ZONE VAV 8 MAIN BRANCH,1 ZONE VAV 8,Air,1 ZONE VAV 8 SUPPLY INLET NODE,1 ZONE VAV 8 SUPPLY OUTLET NODE
 Branch List,10,1 ZONE VAV 9 SUPPLY BRANCHES,1 ZONE VAV 9,Air,1
   Branch,1,1 ZONE VAV 9 MAIN BRANCH,1 ZONE VAV 9,Air,1 ZONE VAV 9 SUPPLY INLET NODE,1 ZONE VAV 9 SUPPLY OUTLET NODE
 Branch List,11,CHILLED WATER LOOP SUPPLY BRANCHES,CHILLED WATER LOOP,Plant Supply,4
   Branch,1,CHILLED WATER LOOP SUPPLY INLET BRANCH,CHILLED WATER LOOP,Plant Supply,CHILLED WATER LOOP SUPPLY INLET NODE,CHILLED WATER LOOP PRIMARY PUMP OUTLET WATER NODE
   Branch,2,CHILLED WATER LOOP SUPPLY BRANCH 1,CHILLED WATER LOOP,Plant Supply,90.1-2004 WATERCOOLED  ROTARY SCREW CHILLER 0 SUPPLY INLET WATER NODE,90.1-2004 WATERCOOLED  ROTARY SCREW CHILLER 0 SUPPLY OUTLET WATER NODE
   Branch,3,CHILLED WATER LOOP SUPPLY BRANCH 2,CHILLED WATER LOOP,Plant Supply,CHILLED WATER LOOP CHILLER BYPASS INLET WATER NODE,CHILLED WATER LOOP CHILLER BYPASS OUTLET WATER NODE
   Branch,4,CHILLED WATER LOOP SUPPLY OUTLET BRANCH,CHILLED WATER LOOP,Plant Supply,CHILLED WATER LOOP SUPPLY OUTLET INLET WATER NODE,CHILLED WATER LOOP SUPPLY OUTLET NODE
 Branch List,12,CHILLED WATER LOOP DEMAND BRANCHES,CHILLED WATER LOOP,Plant Demand,14
   Branch,1,CHILLED WATER LOOP DEMAND INLET BRANCH,CHILLED WATER LOOP,Plant Demand,CHILLED WATER LOOP DEMAND INLET NODE,CHILLED WATER LOOP SECONDARY PUMP OUTLET WATER NODE
   Branch,2,CHILLED WATER LOOP DEMAND BRANCH 1,CHILLED WATER LOOP,Plant Demand,CHILLED WATER LOOP COIL BYPASS INLET WATER NODE,CHILLED WATER LOOP COIL BYPASS OUTLET WATER NODE
   Branch,3,CHILLED WATER LOOP DEMAND BRANCH 2,CHILLED WATER LOOP,Plant Demand,1 ZONE VAV CLG COIL INLET WATER NODE,1 ZONE VAV CLG COIL OUTLET WATER NODE
   Branch,4,CHILLED WATER LOOP DEMAND BRANCH 3,CHILLED WATER LOOP,Plant Demand,1 ZONE VAV 1 CLG COIL INLET WATER NODE,1 ZONE VAV 1 CLG COIL OUTLET WATER NODE
   Branch,5,CHILLED WATER LOOP DEMAND BRANCH 4,CHILLED WATER LOOP,Plant Demand,1 ZONE VAV 2 CLG COIL INLET WATER NODE,1 ZONE VAV 2 CLG COIL OUTLET WATER NODE
   Branch,6,CHILLED WATER LOOP DEMAND BRANCH 5,CHILLED WATER LOOP,Plant Demand,1 ZONE VAV 3 CLG COIL INLET WATER NODE,1 ZONE VAV 3 CLG COIL OUTLET WATER NODE
   Branch,7,CHILLED WATER LOOP DEMAND BRANCH 6,CHILLED WATER LOOP,Plant Demand,1 ZONE VAV 4 CLG COIL INLET WATER NODE,1 ZONE VAV 4 CLG COIL OUTLET WATER NODE
   Branch,8,CHILLED WATER LOOP DEMAND BRANCH 7,CHILLED WATER LOOP,Plant Demand,1 ZONE VAV 5 CLG COIL INLET WATER NODE,1 ZONE VAV 5 CLG COIL OUTLET WATER NODE
   Branch,9,CHILLED WATER LOOP DEMAND BRANCH 8,CHILLED WATER LOOP,Plant Demand,1 ZONE VAV 6 CLG COIL INLET WATER NODE,1 ZONE VAV 6 CLG COIL OUTLET WATER NODE
   Branch,10,CHILLED WATER LOOP DEMAND BRANCH 9,CHILLED WATER LOOP,Plant Demand,1 ZONE VAV 7 CLG COIL INLET WATER NODE,1 ZONE VAV 7 CLG COIL OUTLET WATER NODE
   Branch,11,CHILLED WATER LOOP DEMAND BRANCH 10,CHILLED WATER LOOP,Plant Demand,1 ZONE VAV 8 CLG COIL INLET WATER NODE,1 ZONE VAV 8 CLG COIL OUTLET WATER NODE
   Branch,12,CHILLED WATER LOOP DEMAND BRANCH 11,CHILLED WATER LOOP,Plant Demand,1 ZONE VAV 9 CLG COIL INLET WATER NODE,1 ZONE VAV 9 CLG COIL OUTLET WATER NODE
   Branch,13,CHILLED WATER LOOP DEMAND BYPASS BRANCH,CHILLED WATER LOOP,Plant Demand,CHILLED WATER LOOP DEMAND BYPASS PIPE INLET NODE,CHILLED WATER LOOP DEMAND BYPASS PIPE OUTLET NODE
   Branch,14,CHILLED WATER LOOP DEMAND OUTLET BRANCH,CHILLED WATER LOOP,Plant Demand,CHILLED WATER LOOP DEMAND OUTLET INLET WATER NODE,CHILLED WATER LOOP DEMAND OUTLET NODE
 Branch List,13,CONDENSER WATER LOOP SUPPLY BRANCHES,CONDENSER WATER LOOP,Plant Supply,4
   Branch,1,CONDENSER WATER LOOP SUPPLY INLET BRANCH,CONDENSER WATER LOOP,Plant Supply,CONDENSER WATER LOOP SUPPLY INLET NODE,CONDENSER WATER LOOP CONSTANT PUMP OUTLET WATER NODE
   Branch,2,CONDENSER WATER LOOP SUPPLY BRANCH 1,CONDENSER WATER LOOP,Plant Supply,PROPELLER OR AXIAL TWOSPEED FAN OPEN COOLING TOWER INLET WATER NODE,PROPELLER OR AXIAL TWOSPEED FAN OPEN COOLING TOWER OUTLET WATER NODE
   Branch,3,CONDENSER WATER LOOP SUPPLY BRANCH 2,CONDENSER WATER LOOP,Plant Supply,CONDENSER WATER LOOP COOLING TOWER BYPASS INLET WATER NODE,CONDENSER WATER LOOP COOLING TOWER BYPASS OUTLET WATER NODE
   Branch,4,CONDENSER WATER LOOP SUPPLY OUTLET BRANCH,CONDENSER WATER LOOP,Plant Supply,CONDENSER WATER LOOP SUPPLY OUTLET INLET WATER NODE,CONDENSER WATER LOOP SUPPLY OUTLET NODE
 Branch List,14,CONDENSER WATER LOOP DEMAND BRANCHES,CONDENSER WATER LOOP,Plant Demand,5
   Branch,1,CONDENSER WATER LOOP DEMAND INLET BRANCH,CONDENSER WATER LOOP,Plant Demand,CONDENSER WATER LOOP DEMAND INLET NODE,CONDENSER WATER LOOP DEMAND INLET OUTLET WATER NODE
   Branch,2,CONDENSER WATER LOOP DEMAND BRANCH 1,CONDENSER WATER LOOP,Plant Demand,CONDENSER WATER LOOP CHILLER BYPASS INLET WATER NODE,CONDENSER WATER LOOP CHILLER BYPASS OUTLET WATER NODE
   Branch,3,CONDENSER WATER LOOP DEMAND BRANCH 2,CONDENSER WATER LOOP,Plant Demand,90.1-2004 WATERCOOLED  ROTARY SCREW CHILLER 0 DEMAND INLET WATER NODE,90.1-2004 WATERCOOLED  ROTARY SCREW CHILLER 0 DEMAND OUTLET WATER NODE
   Branch,4,CONDENSER WATER LOOP DEMAND BYPASS BRANCH,CONDENSER WATER LOOP,Plant Demand,CONDENSER WATER LOOP DEMAND BYPASS PIPE INLET NODE,CONDENSER WATER LOOP DEMAND BYPASS PIPE OUTLET NODE
   Branch,5,CONDENSER WATER LOOP DEMAND OUTLET BRANCH,CONDENSER WATER LOOP,Plant Demand,CONDENSER WATER LOOP DEMAND OUTLET INLET WATER NODE,CONDENSER WATER LOOP DEMAND OUTLET NODE
 Branch List,15,HOT WATER LOOP SUPPLY BRANCHES,HOT WATER LOOP,Plant Supply,4
   Branch,1,HOT WATER LOOP SUPPLY INLET BRANCH,HOT WATER LOOP,Plant Supply,HOT WATER LOOP SUPPLY INLET NODE,HOT WATER LOOP PUMP OUTLET WATER NODE
   Branch,2,HOT WATER LOOP SUPPLY BRANCH 1,HOT WATER LOOP,Plant Supply,BOILER INLET WATER NODE,BOILER OUTLET WATER NODE
   Branch,3,HOT WATER LOOP SUPPLY BRANCH 2,HOT WATER LOOP,Plant Supply,HOT WATER LOOP SUPPLY EQUIPMENT BYPASS INLET WATER NODE,HOT WATER LOOP SUPPLY EQUIPMENT BYPASS OUTLET WATER NODE
   Branch,4,HOT WATER LOOP SUPPLY OUTLET BRANCH,HOT WATER LOOP,Plant Supply,HOT WATER LOOP SUPPLY OUTLET INLET WATER NODE,HOT WATER LOOP SUPPLY OUTLET NODE
 Branch List,16,HOT WATER LOOP DEMAND BRANCHES,HOT WATER LOOP,Plant Demand,24
   Branch,1,HOT WATER LOOP DEMAND INLET BRANCH,HOT WATER LOOP,Plant Demand,HOT WATER LOOP DEMAND INLET NODE,HOT WATER LOOP DEMAND INLET OUTLET WATER NODE
   Branch,2,HOT WATER LOOP DEMAND BRANCH 1,HOT WATER LOOP,Plant Demand,HOT WATER LOOP COIL BYPASS INLET WATER NODE,HOT WATER LOOP COIL BYPASS OUTLET WATER NODE
   Branch,3,HOT WATER LOOP DEMAND BRANCH 2,HOT WATER LOOP,Plant Demand,1 ZONE VAV MAIN HTG COIL INLET WATER NODE,1 ZONE VAV MAIN HTG COIL OUTLET WATER NODE
   Branch,4,HOT WATER LOOP DEMAND BRANCH 3,HOT WATER LOOP,Plant Demand,BUILDING STORY 1 THERMALZONE REHEAT COIL INLET WATER NODE,BUILDING STORY 1 THERMALZONE REHEAT COIL OUTLET WATER NODE
   Branch,5,HOT WATER LOOP DEMAND BRANCH 4,HOT WATER LOOP,Plant Demand,1 ZONE VAV 1 MAIN HTG COIL INLET WATER NODE,1 ZONE VAV 1 MAIN HTG COIL OUTLET WATER NODE
   Branch,6,HOT WATER LOOP DEMAND BRANCH 5,HOT WATER LOOP,Plant Demand,BUILDING STORY 10 THERMALZONE REHEAT COIL INLET WATER NODE,BUILDING STORY 10 THERMALZONE REHEAT COIL OUTLET WATER NODE
   Branch,7,HOT WATER LOOP DEMAND BRANCH 6,HOT WATER LOOP,Plant Demand,1 ZONE VAV 2 MAIN HTG COIL INLET WATER NODE,1 ZONE VAV 2 MAIN HTG COIL OUTLET WATER NODE
   Branch,8,HOT WATER LOOP DEMAND BRANCH 7,HOT WATER LOOP,Plant Demand,BUILDING STORY 2 THERMALZONE REHEAT COIL INLET WATER NODE,BUILDING STORY 2 THERMALZONE REHEAT COIL OUTLET WATER NODE
   Branch,9,HOT WATER LOOP DEMAND BRANCH 8,HOT WATER LOOP,Plant Demand,1 ZONE VAV 3 MAIN HTG COIL INLET WATER NODE,1 ZONE VAV 3 MAIN HTG COIL OUTLET WATER NODE
   Branch,10,HOT WATER LOOP DEMAND BRANCH 9,HOT WATER LOOP,Plant Demand,BUILDING STORY 3 THERMALZONE REHEAT COIL INLET WATER NODE,BUILDING STORY 3 THERMALZONE REHEAT COIL OUTLET WATER NODE
   Branch,11,HOT WATER LOOP DEMAND BRANCH 10,HOT WATER LOOP,Plant Demand,1 ZONE VAV 4 MAIN HTG COIL INLET WATER NODE,1 ZONE VAV 4 MAIN HTG COIL OUTLET WATER NODE
   Branch,12,HOT WATER LOOP DEMAND BRANCH 11,HOT WATER LOOP,Plant Demand,BUILDING STORY 4 THERMALZONE REHEAT COIL INLET WATER NODE,BUILDING STORY 4 THERMALZONE REHEAT COIL OUTLET WATER NODE
   Branch,13,HOT WATER LOOP DEMAND BRANCH 12,HOT WATER LOOP,Plant Demand,1 ZONE VAV 5 MAIN HTG COIL INLET WATER NODE,1 ZONE VAV 5 MAIN HTG COIL OUTLET WATER NODE
   Branch,14,HOT WATER LOOP DEMAND BRANCH 13,HOT WATER LOOP,Plant Demand,BUILDING STORY 5 THERMALZONE REHEAT COIL INLET WATER NODE,BUILDING STORY 5 THERMALZONE REHEAT COIL OUTLET WATER NODE
   Branch,15,HOT WATER LOOP DEMAND BRANCH 14,HOT WATER LOOP,Plant Demand,1 ZONE VAV 6 MAIN HTG COIL INLET WATER NODE,1 ZONE VAV 6 MAIN HTG COIL OUTLET WATER NODE
   Branch,16,HOT WATER LOOP DEMAND BRANCH 15,HOT WATER LOOP,Plant Demand,BUILDING STORY 6 THERMALZONE REHEAT COIL INLET WATER NODE,BUILDING STORY 6 THERMALZONE REHEAT COIL OUTLET WATER NODE
   Branch,17,HOT WATER LOOP DEMAND BRANCH 16,HOT WATER LOOP,Plant Demand,1 ZONE VAV 7 MAIN HTG COIL INLET WATER NODE,1 ZONE VAV 7 MAIN HTG COIL OUTLET WATER NODE
   Branch,18,HOT WATER LOOP DEMAND BRANCH 17,HOT WATER LOOP,Plant Demand,BUILDING STORY 7 THERMALZONE REHEAT COIL INLET WATER NODE,BUILDING STORY 7 THERMALZONE REHEAT COIL OUTLET WATER NODE
   Branch,19,HOT WATER LOOP DEMAND BRANCH 18,HOT WATER LOOP,Plant Demand,1 ZONE VAV 8 MAIN HTG COIL INLET WATER NODE,1 ZONE VAV 8 MAIN HTG COIL OUTLET WATER NODE
   Branch,20,HOT WATER LOOP DEMAND BRANCH 19,HOT WATER LOOP,Plant Demand,BUILDING STORY 8 THERMALZONE REHEAT COIL INLET WATER NODE,BUILDING STORY 8 THERMALZONE REHEAT COIL OUTLET WATER NODE
   Branch,21,HOT WATER LOOP DEMAND BRANCH 20,HOT WATER LOOP,Plant Demand,1 ZONE VAV 9 MAIN HTG COIL INLET WATER NODE,1 ZONE VAV 9 MAIN HTG COIL OUTLET WATER NODE
   Branch,22,HOT WATER LOOP DEMAND BRANCH 21,HOT WATER LOOP,Plant Demand,BUILDING STORY 9 THERMALZONE REHEAT COIL INLET WATER NODE,BUILDING STORY 9 THERMALZONE REHEAT COIL OUTLET WATER NODE
   Branch,23,HOT WATER LOOP DEMAND BYPASS BRANCH,HOT WATER LOOP,Plant Demand,HOT WATER LOOP DEMAND BYPASS PIPE INLET NODE,HOT WATER LOOP DEMAND BYPASS PIPE OUTLET NODE
   Branch,24,HOT WATER LOOP DEMAND OUTLET BRANCH,HOT WATER LOOP,Plant Demand,HOT WATER LOOP DEMAND OUTLET INLET WATER NODE,HOT WATER LOOP DEMAND OUTLET NODE
 Branch List,17,OUTPATIENT SHARED SERVICE WATER LOOP SUPPLY BRANCHES,OUTPATIENT SHARED SERVICE WATER LOOP,Plant Supply,4
   Branch,1,OUTPATIENT SHARED SERVICE WATER LOOP SUPPLY INLET BRANCH,OUTPATIENT SHARED SERVICE WATER LOOP,Plant Supply,OUTPATIENT SHARED SERVICE WATER LOOP SUPPLY INLET NODE,OUTPATIENT SHARED SERVICE WATER LOOP CIRCULATOR PUMP OUTLET WATER NODE
   Branch,2,OUTPATIENT SHARED SERVICE WATER LOOP SUPPLY BRANCH 1,OUTPATIENT SHARED SERVICE WATER LOOP,Plant Supply,555GAL NATURALGAS WATER HEATER - 555KBTU/HR SUPPLY INLET WATER NODE,555GAL NATURALGAS WATER HEATER - 555KBTU/HR SUPPLY OUTLET WATER NODE
   Branch,3,OUTPATIENT SHARED SERVICE WATER LOOP SUPPLY BRANCH 2,OUTPATIENT SHARED SERVICE WATER LOOP,Plant Supply,PIPE ADIABATIC 1 INLET WATER NODE,PIPE ADIABATIC 1 OUTLET WATER NODE
   Branch,4,OUTPATIENT SHARED SERVICE WATER LOOP SUPPLY OUTLET BRANCH,OUTPATIENT SHARED SERVICE WATER LOOP,Plant Supply,PIPE ADIABATIC 3 INLET WATER NODE,OUTPATIENT SHARED SERVICE WATER LOOP SUPPLY OUTLET NODE
 Branch List,18,OUTPATIENT SHARED SERVICE WATER LOOP DEMAND BRANCHES,OUTPATIENT SHARED SERVICE WATER LOOP,Plant Demand,13
   Branch,1,OUTPATIENT SHARED SERVICE WATER LOOP DEMAND INLET BRANCH,OUTPATIENT SHARED SERVICE WATER LOOP,Plant Demand,OUTPATIENT SHARED SERVICE WATER LOOP DEMAND INLET NODE,OUTPATIENT SHARED SERVICE WATER LOOP PIPE 581.5968127363554FT OUTLET WATER NODE
   Branch,2,OUTPATIENT SHARED SERVICE WATER LOOP DEMAND BRANCH 1,OUTPATIENT SHARED SERVICE WATER LOOP,Plant Demand,PIPE ADIABATIC 2 INLET WATER NODE,PIPE ADIABATIC 2 OUTLET WATER NODE
   Branch,3,OUTPATIENT SHARED SERVICE WATER LOOP DEMAND BRANCH 2,OUTPATIENT SHARED SERVICE WATER LOOP,Plant Demand,OUTPATIENT ANESTHESIA - 90.1-2004 WUC 0.35GPM AT 140F INLET WATER NODE,OUTPATIENT ANESTHESIA - 90.1-2004 WUC 0.35GPM AT 140F OUTLET WATER NODE
   Branch,4,OUTPATIENT SHARED SERVICE WATER LOOP DEMAND BRANCH 3,OUTPATIENT SHARED SERVICE WATER LOOP,Plant Demand,OUTPATIENT MRI - 90.1-2004 WUC 0.36GPM AT 140F INLET WATER NODE,OUTPATIENT MRI - 90.1-2004 WUC 0.36GPM AT 140F OUTLET WATER NODE
   Branch,5,OUTPATIENT SHARED SERVICE WATER LOOP DEMAND BRANCH 4,OUTPATIENT SHARED SERVICE WATER LOOP,Plant Demand,OUTPATIENT MRI_CONTROL - 90.1-2004 WUC 0.36GPM AT 140F INLET WATER NODE,OUTPATIENT MRI_CONTROL - 90.1-2004 WUC 0.36GPM AT 140F OUTLET WATER NODE
   Branch,6,OUTPATIENT SHARED SERVICE WATER LOOP DEMAND BRANCH 5,OUTPATIENT SHARED SERVICE WATER LOOP,Plant Demand,OUTPATIENT OR - 90.1-2004 WUC 6.45GPM AT 140F INLET WATER NODE,OUTPATIENT OR - 90.1-2004 WUC 6.45GPM AT 140F OUTLET WATER NODE
   Branch,7,OUTPATIENT SHARED SERVICE WATER LOOP DEMAND BRANCH 6,OUTPATIENT SHARED SERVICE WATER LOOP,Plant Demand,OUTPATIENT PACU - 90.1-2004 WUC 1.08GPM AT 140F INLET WATER NODE,OUTPATIENT PACU - 90.1-2004 WUC 1.08GPM AT 140F OUTLET WATER NODE
   Branch,8,OUTPATIENT SHARED SERVICE WATER LOOP DEMAND BRANCH 7,OUTPATIENT SHARED SERVICE WATER LOOP,Plant Demand,OUTPATIENT PHYSICALTHERAPY - 90.1-2004 WUC 0.72GPM AT 140F INLET WATER NODE,OUTPATIENT PHYSICALTHERAPY - 90.1-2004 WUC 0.72GPM AT 140F OUTLET WATER NODE
   Branch,9,OUTPATIENT SHARED SERVICE WATER LOOP DEMAND BRANCH 8,OUTPATIENT SHARED SERVICE WATER LOOP,Plant Demand,OUTPATIENT PREOP - 90.1-2004 WUC 0.72GPM AT 140F INLET WATER NODE,OUTPATIENT PREOP - 90.1-2004 WUC 0.72GPM AT 140F OUTLET WATER NODE
   Branch,10,OUTPATIENT SHARED SERVICE WATER LOOP DEMAND BRANCH 9,OUTPATIENT SHARED SERVICE WATER LOOP,Plant Demand,OUTPATIENT PROCEDUREROOM - 90.1-2004 WUC 0.36GPM AT 140F INLET WATER NODE,OUTPATIENT PROCEDUREROOM - 90.1-2004 WUC 0.36GPM AT 140F OUTLET WATER NODE
   Branch,11,OUTPATIENT SHARED SERVICE WATER LOOP DEMAND BRANCH 10,OUTPATIENT SHARED SERVICE WATER LOOP,Plant Demand,OUTPATIENT XRAY - 90.1-2004 WUC 0.36GPM AT 140F INLET WATER NODE,OUTPATIENT XRAY - 90.1-2004 WUC 0.36GPM AT 140F OUTLET WATER NODE
   Branch,12,OUTPATIENT SHARED SERVICE WATER LOOP DEMAND BYPASS BRANCH,OUTPATIENT SHARED SERVICE WATER LOOP,Plant Demand,OUTPATIENT SHARED SERVICE WATER LOOP DEMAND BYPASS PIPE INLET NODE,OUTPATIENT SHARED SERVICE WATER LOOP DEMAND BYPASS PIPE OUTLET NODE
   Branch,13,OUTPATIENT SHARED SERVICE WATER LOOP DEMAND OUTLET BRANCH,OUTPATIENT SHARED SERVICE WATER LOOP,Plant Demand,PIPE ADIABATIC 4 INLET WATER NODE,OUTPATIENT SHARED SERVICE WATER LOOP DEMAND OUTLET NODE
! ===============================================================
! <#Supply Air Paths>,<Number of Supply Air Paths>
 #Supply Air Paths,10
! <Supply Air Path>,<Supply Air Path Count>,<Supply Air Path Name>,<AirLoopHVAC Name>
! <#Components on Supply Air Path>,<Number of Components>
! <Supply Air Path Component>,<Component Count>,<Component Type>,<Component Name>,<AirLoopHVAC Name>
! <#Outlet Nodes on Supply Air Path Component>,<Number of Nodes>
! <Supply Air Path Component Nodes>,<Node Count>,<Component Type>,<Component Name>,<Inlet Node Name>,<Outlet Node Name>,<AirLoopHVAC Name>
 Supply Air Path,1,1 ZONE VAV 1 ZONE VAV DEMAND INLET NODE SUPPLY PATH,1 ZONE VAV
   #Components on Supply Air Path,1
   Supply Air Path Component,1,AIRLOOPHVAC:ZONESPLITTER,AIR LOOP HVAC ZONE SPLITTER 1,1 ZONE VAV
     #Outlet Nodes on Supply Air Path Component,1
     Supply Air Path Component Nodes,1,AIRLOOPHVAC:ZONESPLITTER,AIR LOOP HVAC ZONE SPLITTER 1,1 ZONE VAV DEMAND INLET NODE,BUILDING STORY 1 THERMALZONE VAV TERMINAL INLET AIR NODE,1 ZONE VAV
! <#Nodes on Supply Air Path>,<Number of Nodes>
! <Supply Air Path Node>,<Node Type>,<Node Count>,<Node Name>,<AirLoopHVAC Name>
#Nodes on Supply Air Path,2
   Supply Air Path Node,Inlet Node,1,1 ZONE VAV DEMAND INLET NODE,1 ZONE VAV
   Supply Air Path Node,Outlet Node,2,BUILDING STORY 1 THERMALZONE VAV TERMINAL INLET AIR NODE,1 ZONE VAV
 Supply Air Path,2,1 ZONE VAV 1 1 ZONE VAV 1 DEMAND INLET NODE SUPPLY PATH,1 ZONE VAV 1
   #Components on Supply Air Path,1
   Supply Air Path Component,1,AIRLOOPHVAC:ZONESPLITTER,AIR LOOP HVAC ZONE SPLITTER 2,1 ZONE VAV 1
     #Outlet Nodes on Supply Air Path Component,1
     Supply Air Path Component Nodes,1,AIRLOOPHVAC:ZONESPLITTER,AIR LOOP HVAC ZONE SPLITTER 2,1 ZONE VAV 1 DEMAND INLET NODE,BUILDING STORY 10 THERMALZONE VAV TERMINAL INLET AIR NODE,1 ZONE VAV 1
! <#Nodes on Supply Air Path>,<Number of Nodes>
! <Supply Air Path Node>,<Node Type>,<Node Count>,<Node Name>,<AirLoopHVAC Name>
#Nodes on Supply Air Path,2
   Supply Air Path Node,Inlet Node,1,1 ZONE VAV 1 DEMAND INLET NODE,1 ZONE VAV 1
   Supply Air Path Node,Outlet Node,2,BUILDING STORY 10 THERMALZONE VAV TERMINAL INLET AIR NODE,1 ZONE VAV 1
 Supply Air Path,3,1 ZONE VAV 2 1 ZONE VAV 2 DEMAND INLET NODE SUPPLY PATH,1 ZONE VAV 2
   #Components on Supply Air Path,1
   Supply Air Path Component,1,AIRLOOPHVAC:ZONESPLITTER,AIR LOOP HVAC ZONE SPLITTER 3,1 ZONE VAV 2
     #Outlet Nodes on Supply Air Path Component,1
     Supply Air Path Component Nodes,1,AIRLOOPHVAC:ZONESPLITTER,AIR LOOP HVAC ZONE SPLITTER 3,1 ZONE VAV 2 DEMAND INLET NODE,BUILDING STORY 2 THERMALZONE VAV TERMINAL INLET AIR NODE,1 ZONE VAV 2
! <#Nodes on Supply Air Path>,<Number of Nodes>
! <Supply Air Path Node>,<Node Type>,<Node Count>,<Node Name>,<AirLoopHVAC Name>
#Nodes on Supply Air Path,2
   Supply Air Path Node,Inlet Node,1,1 ZONE VAV 2 DEMAND INLET NODE,1 ZONE VAV 2
   Supply Air Path Node,Outlet Node,2,BUILDING STORY 2 THERMALZONE VAV TERMINAL INLET AIR NODE,1 ZONE VAV 2
 Supply Air Path,4,1 ZONE VAV 3 1 ZONE VAV 3 DEMAND INLET NODE SUPPLY PATH,1 ZONE VAV 3
   #Components on Supply Air Path,1
   Supply Air Path Component,1,AIRLOOPHVAC:ZONESPLITTER,AIR LOOP HVAC ZONE SPLITTER 4,1 ZONE VAV 3
     #Outlet Nodes on Supply Air Path Component,1
     Supply Air Path Component Nodes,1,AIRLOOPHVAC:ZONESPLITTER,AIR LOOP HVAC ZONE SPLITTER 4,1 ZONE VAV 3 DEMAND INLET NODE,BUILDING STORY 3 THERMALZONE VAV TERMINAL INLET AIR NODE,1 ZONE VAV 3
! <#Nodes on Supply Air Path>,<Number of Nodes>
! <Supply Air Path Node>,<Node Type>,<Node Count>,<Node Name>,<AirLoopHVAC Name>
#Nodes on Supply Air Path,2
   Supply Air Path Node,Inlet Node,1,1 ZONE VAV 3 DEMAND INLET NODE,1 ZONE VAV 3
   Supply Air Path Node,Outlet Node,2,BUILDING STORY 3 THERMALZONE VAV TERMINAL INLET AIR NODE,1 ZONE VAV 3
 Supply Air Path,5,1 ZONE VAV 4 1 ZONE VAV 4 DEMAND INLET NODE SUPPLY PATH,1 ZONE VAV 4
   #Components on Supply Air Path,1
   Supply Air Path Component,1,AIRLOOPHVAC:ZONESPLITTER,AIR LOOP HVAC ZONE SPLITTER 5,1 ZONE VAV 4
     #Outlet Nodes on Supply Air Path Component,1
     Supply Air Path Component Nodes,1,AIRLOOPHVAC:ZONESPLITTER,AIR LOOP HVAC ZONE SPLITTER 5,1 ZONE VAV 4 DEMAND INLET NODE,BUILDING STORY 4 THERMALZONE VAV TERMINAL INLET AIR NODE,1 ZONE VAV 4
! <#Nodes on Supply Air Path>,<Number of Nodes>
! <Supply Air Path Node>,<Node Type>,<Node Count>,<Node Name>,<AirLoopHVAC Name>
#Nodes on Supply Air Path,2
   Supply Air Path Node,Inlet Node,1,1 ZONE VAV 4 DEMAND INLET NODE,1 ZONE VAV 4
   Supply Air Path Node,Outlet Node,2,BUILDING STORY 4 THERMALZONE VAV TERMINAL INLET AIR NODE,1 ZONE VAV 4
 Supply Air Path,6,1 ZONE VAV 5 1 ZONE VAV 5 DEMAND INLET NODE SUPPLY PATH,1 ZONE VAV 5
   #Components on Supply Air Path,1
   Supply Air Path Component,1,AIRLOOPHVAC:ZONESPLITTER,AIR LOOP HVAC ZONE SPLITTER 6,1 ZONE VAV 5
     #Outlet Nodes on Supply Air Path Component,1
     Supply Air Path Component Nodes,1,AIRLOOPHVAC:ZONESPLITTER,AIR LOOP HVAC ZONE SPLITTER 6,1 ZONE VAV 5 DEMAND INLET NODE,BUILDING STORY 5 THERMALZONE VAV TERMINAL INLET AIR NODE,1 ZONE VAV 5
! <#Nodes on Supply Air Path>,<Number of Nodes>
! <Supply Air Path Node>,<Node Type>,<Node Count>,<Node Name>,<AirLoopHVAC Name>
#Nodes on Supply Air Path,2
   Supply Air Path Node,Inlet Node,1,1 ZONE VAV 5 DEMAND INLET NODE,1 ZONE VAV 5
   Supply Air Path Node,Outlet Node,2,BUILDING STORY 5 THERMALZONE VAV TERMINAL INLET AIR NODE,1 ZONE VAV 5
 Supply Air Path,7,1 ZONE VAV 6 1 ZONE VAV 6 DEMAND INLET NODE SUPPLY PATH,1 ZONE VAV 6
   #Components on Supply Air Path,1
   Supply Air Path Component,1,AIRLOOPHVAC:ZONESPLITTER,AIR LOOP HVAC ZONE SPLITTER 7,1 ZONE VAV 6
     #Outlet Nodes on Supply Air Path Component,1
     Supply Air Path Component Nodes,1,AIRLOOPHVAC:ZONESPLITTER,AIR LOOP HVAC ZONE SPLITTER 7,1 ZONE VAV 6 DEMAND INLET NODE,BUILDING STORY 6 THERMALZONE VAV TERMINAL INLET AIR NODE,1 ZONE VAV 6
! <#Nodes on Supply Air Path>,<Number of Nodes>
! <Supply Air Path Node>,<Node Type>,<Node Count>,<Node Name>,<AirLoopHVAC Name>
#Nodes on Supply Air Path,2
   Supply Air Path Node,Inlet Node,1,1 ZONE VAV 6 DEMAND INLET NODE,1 ZONE VAV 6
   Supply Air Path Node,Outlet Node,2,BUILDING STORY 6 THERMALZONE VAV TERMINAL INLET AIR NODE,1 ZONE VAV 6
 Supply Air Path,8,1 ZONE VAV 7 1 ZONE VAV 7 DEMAND INLET NODE SUPPLY PATH,1 ZONE VAV 7
   #Components on Supply Air Path,1
   Supply Air Path Component,1,AIRLOOPHVAC:ZONESPLITTER,AIR LOOP HVAC ZONE SPLITTER 8,1 ZONE VAV 7
     #Outlet Nodes on Supply Air Path Component,1
     Supply Air Path Component Nodes,1,AIRLOOPHVAC:ZONESPLITTER,AIR LOOP HVAC ZONE SPLITTER 8,1 ZONE VAV 7 DEMAND INLET NODE,BUILDING STORY 7 THERMALZONE VAV TERMINAL INLET AIR NODE,1 ZONE VAV 7
! <#Nodes on Supply Air Path>,<Number of Nodes>
! <Supply Air Path Node>,<Node Type>,<Node Count>,<Node Name>,<AirLoopHVAC Name>
#Nodes on Supply Air Path,2
   Supply Air Path Node,Inlet Node,1,1 ZONE VAV 7 DEMAND INLET NODE,1 ZONE VAV 7
   Supply Air Path Node,Outlet Node,2,BUILDING STORY 7 THERMALZONE VAV TERMINAL INLET AIR NODE,1 ZONE VAV 7
 Supply Air Path,9,1 ZONE VAV 8 1 ZONE VAV 8 DEMAND INLET NODE SUPPLY PATH,1 ZONE VAV 8
   #Components on Supply Air Path,1
   Supply Air Path Component,1,AIRLOOPHVAC:ZONESPLITTER,AIR LOOP HVAC ZONE SPLITTER 9,1 ZONE VAV 8
     #Outlet Nodes on Supply Air Path Component,1
     Supply Air Path Component Nodes,1,AIRLOOPHVAC:ZONESPLITTER,AIR LOOP HVAC ZONE SPLITTER 9,1 ZONE VAV 8 DEMAND INLET NODE,BUILDING STORY 8 THERMALZONE VAV TERMINAL INLET AIR NODE,1 ZONE VAV 8
! <#Nodes on Supply Air Path>,<Number of Nodes>
! <Supply Air Path Node>,<Node Type>,<Node Count>,<Node Name>,<AirLoopHVAC Name>
#Nodes on Supply Air Path,2
   Supply Air Path Node,Inlet Node,1,1 ZONE VAV 8 DEMAND INLET NODE,1 ZONE VAV 8
   Supply Air Path Node,Outlet Node,2,BUILDING STORY 8 THERMALZONE VAV TERMINAL INLET AIR NODE,1 ZONE VAV 8
 Supply Air Path,10,1 ZONE VAV 9 1 ZONE VAV 9 DEMAND INLET NODE SUPPLY PATH,1 ZONE VAV 9
   #Components on Supply Air Path,1
   Supply Air Path Component,1,AIRLOOPHVAC:ZONESPLITTER,AIR LOOP HVAC ZONE SPLITTER 10,1 ZONE VAV 9
     #Outlet Nodes on Supply Air Path Component,1
     Supply Air Path Component Nodes,1,AIRLOOPHVAC:ZONESPLITTER,AIR LOOP HVAC ZONE SPLITTER 10,1 ZONE VAV 9 DEMAND INLET NODE,BUILDING STORY 9 THERMALZONE VAV TERMINAL INLET AIR NODE,1 ZONE VAV 9
! <#Nodes on Supply Air Path>,<Number of Nodes>
! <Supply Air Path Node>,<Node Type>,<Node Count>,<Node Name>,<AirLoopHVAC Name>
#Nodes on Supply Air Path,2
   Supply Air Path Node,Inlet Node,1,1 ZONE VAV 9 DEMAND INLET NODE,1 ZONE VAV 9
   Supply Air Path Node,Outlet Node,2,BUILDING STORY 9 THERMALZONE VAV TERMINAL INLET AIR NODE,1 ZONE VAV 9
! ===============================================================
! <#Return Air Paths>,<Number of Return Air Paths>
 #Return Air Paths,10
! <Return Air Path>,<Return Air Path Count>,<Return Air Path Name>,<AirLoopHVAC Name>
! <#Components on Return Air Path>,<Number of Components>
! <Return Air Path Component>,<Component Count>,<Component Type>,<Component Name>,<AirLoopHVAC Name>
! <#Inlet Nodes on Return Air Path Component>,<Number of Nodes>
! <Return Air Path Component Nodes>,<Node Count>,<Component Type>,<Component Name>,<Inlet Node Name>,<Outlet Node Name>,<AirLoopHVAC Name>
 Return Air Path,1,1 ZONE VAV RETURN PATH,1 ZONE VAV
   #Components on Return Air Path,1
   Return Air Path Component,1,AIRLOOPHVAC:ZONEMIXER,AIR LOOP HVAC ZONE MIXER 1,1 ZONE VAV
     #Inlet Nodes on Return Air Path Component,1
     Return Air Path Component Nodes,1,AIRLOOPHVAC:ZONEMIXER,AIR LOOP HVAC ZONE MIXER 1,BUILDING STORY 1 THERMALZONE RETURN AIR NODE,1 ZONE VAV DEMAND OUTLET NODE,1 ZONE VAV
! <#Nodes on Return Air Path>,<Number of Nodes>
! <Return Air Path Node>,<Node Type>,<Node Count>,<Node Name>,<AirLoopHVAC Name>
   #Nodes on Return Air Path,2
   Return Air Path Node,Outlet Node,1,1 ZONE VAV DEMAND OUTLET NODE,1 ZONE VAV
   Return Air Path Node,Inlet Node,2,BUILDING STORY 1 THERMALZONE RETURN AIR NODE,1 ZONE VAV
 Return Air Path,2,1 ZONE VAV 1 RETURN PATH,1 ZONE VAV 1
   #Components on Return Air Path,1
   Return Air Path Component,1,AIRLOOPHVAC:ZONEMIXER,AIR LOOP HVAC ZONE MIXER 2,1 ZONE VAV 1
     #Inlet Nodes on Return Air Path Component,1
     Return Air Path Component Nodes,1,AIRLOOPHVAC:ZONEMIXER,AIR LOOP HVAC ZONE MIXER 2,BUILDING STORY 10 THERMALZONE RETURN AIR NODE,1 ZONE VAV 1 DEMAND OUTLET NODE,1 ZONE VAV 1
! <#Nodes on Return Air Path>,<Number of Nodes>
! <Return Air Path Node>,<Node Type>,<Node Count>,<Node Name>,<AirLoopHVAC Name>
   #Nodes on Return Air Path,2
   Return Air Path Node,Outlet Node,1,1 ZONE VAV 1 DEMAND OUTLET NODE,1 ZONE VAV 1
   Return Air Path Node,Inlet Node,2,BUILDING STORY 10 THERMALZONE RETURN AIR NODE,1 ZONE VAV 1
 Return Air Path,3,1 ZONE VAV 2 RETURN PATH,1 ZONE VAV 2
   #Components on Return Air Path,1
   Return Air Path Component,1,AIRLOOPHVAC:ZONEMIXER,AIR LOOP HVAC ZONE MIXER 3,1 ZONE VAV 2
     #Inlet Nodes on Return Air Path Component,1
     Return Air Path Component Nodes,1,AIRLOOPHVAC:ZONEMIXER,AIR LOOP HVAC ZONE MIXER 3,BUILDING STORY 2 THERMALZONE RETURN AIR NODE,1 ZONE VAV 2 DEMAND OUTLET NODE,1 ZONE VAV 2
! <#Nodes on Return Air Path>,<Number of Nodes>
! <Return Air Path Node>,<Node Type>,<Node Count>,<Node Name>,<AirLoopHVAC Name>
   #Nodes on Return Air Path,2
   Return Air Path Node,Outlet Node,1,1 ZONE VAV 2 DEMAND OUTLET NODE,1 ZONE VAV 2
   Return Air Path Node,Inlet Node,2,BUILDING STORY 2 THERMALZONE RETURN AIR NODE,1 ZONE VAV 2
 Return Air Path,4,1 ZONE VAV 3 RETURN PATH,1 ZONE VAV 3
   #Components on Return Air Path,1
   Return Air Path Component,1,AIRLOOPHVAC:ZONEMIXER,AIR LOOP HVAC ZONE MIXER 4,1 ZONE VAV 3
     #Inlet Nodes on Return Air Path Component,1
     Return Air Path Component Nodes,1,AIRLOOPHVAC:ZONEMIXER,AIR LOOP HVAC ZONE MIXER 4,BUILDING STORY 3 THERMALZONE RETURN AIR NODE,1 ZONE VAV 3 DEMAND OUTLET NODE,1 ZONE VAV 3
! <#Nodes on Return Air Path>,<Number of Nodes>
! <Return Air Path Node>,<Node Type>,<Node Count>,<Node Name>,<AirLoopHVAC Name>
   #Nodes on Return Air Path,2
   Return Air Path Node,Outlet Node,1,1 ZONE VAV 3 DEMAND OUTLET NODE,1 ZONE VAV 3
   Return Air Path Node,Inlet Node,2,BUILDING STORY 3 THERMALZONE RETURN AIR NODE,1 ZONE VAV 3
 Return Air Path,5,1 ZONE VAV 4 RETURN PATH,1 ZONE VAV 4
   #Components on Return Air Path,1
   Return Air Path Component,1,AIRLOOPHVAC:ZONEMIXER,AIR LOOP HVAC ZONE MIXER 5,1 ZONE VAV 4
     #Inlet Nodes on Return Air Path Component,1
     Return Air Path Component Nodes,1,AIRLOOPHVAC:ZONEMIXER,AIR LOOP HVAC ZONE MIXER 5,BUILDING STORY 4 THERMALZONE RETURN AIR NODE,1 ZONE VAV 4 DEMAND OUTLET NODE,1 ZONE VAV 4
! <#Nodes on Return Air Path>,<Number of Nodes>
! <Return Air Path Node>,<Node Type>,<Node Count>,<Node Name>,<AirLoopHVAC Name>
   #Nodes on Return Air Path,2
   Return Air Path Node,Outlet Node,1,1 ZONE VAV 4 DEMAND OUTLET NODE,1 ZONE VAV 4
   Return Air Path Node,Inlet Node,2,BUILDING STORY 4 THERMALZONE RETURN AIR NODE,1 ZONE VAV 4
 Return Air Path,6,1 ZONE VAV 5 RETURN PATH,1 ZONE VAV 5
   #Components on Return Air Path,1
   Return Air Path Component,1,AIRLOOPHVAC:ZONEMIXER,AIR LOOP HVAC ZONE MIXER 6,1 ZONE VAV 5
     #Inlet Nodes on Return Air Path Component,1
     Return Air Path Component Nodes,1,AIRLOOPHVAC:ZONEMIXER,AIR LOOP HVAC ZONE MIXER 6,BUILDING STORY 5 THERMALZONE RETURN AIR NODE,1 ZONE VAV 5 DEMAND OUTLET NODE,1 ZONE VAV 5
! <#Nodes on Return Air Path>,<Number of Nodes>
! <Return Air Path Node>,<Node Type>,<Node Count>,<Node Name>,<AirLoopHVAC Name>
   #Nodes on Return Air Path,2
   Return Air Path Node,Outlet Node,1,1 ZONE VAV 5 DEMAND OUTLET NODE,1 ZONE VAV 5
   Return Air Path Node,Inlet Node,2,BUILDING STORY 5 THERMALZONE RETURN AIR NODE,1 ZONE VAV 5
 Return Air Path,7,1 ZONE VAV 6 RETURN PATH,1 ZONE VAV 6
   #Components on Return Air Path,1
   Return Air Path Component,1,AIRLOOPHVAC:ZONEMIXER,AIR LOOP HVAC ZONE MIXER 7,1 ZONE VAV 6
     #Inlet Nodes on Return Air Path Component,1
     Return Air Path Component Nodes,1,AIRLOOPHVAC:ZONEMIXER,AIR LOOP HVAC ZONE MIXER 7,BUILDING STORY 6 THERMALZONE RETURN AIR NODE,1 ZONE VAV 6 DEMAND OUTLET NODE,1 ZONE VAV 6
! <#Nodes on Return Air Path>,<Number of Nodes>
! <Return Air Path Node>,<Node Type>,<Node Count>,<Node Name>,<AirLoopHVAC Name>
   #Nodes on Return Air Path,2
   Return Air Path Node,Outlet Node,1,1 ZONE VAV 6 DEMAND OUTLET NODE,1 ZONE VAV 6
   Return Air Path Node,Inlet Node,2,BUILDING STORY 6 THERMALZONE RETURN AIR NODE,1 ZONE VAV 6
 Return Air Path,8,1 ZONE VAV 7 RETURN PATH,1 ZONE VAV 7
   #Components on Return Air Path,1
   Return Air Path Component,1,AIRLOOPHVAC:ZONEMIXER,AIR LOOP HVAC ZONE MIXER 8,1 ZONE VAV 7
     #Inlet Nodes on Return Air Path Component,1
     Return Air Path Component Nodes,1,AIRLOOPHVAC:ZONEMIXER,AIR LOOP HVAC ZONE MIXER 8,BUILDING STORY 7 THERMALZONE RETURN AIR NODE,1 ZONE VAV 7 DEMAND OUTLET NODE,1 ZONE VAV 7
! <#Nodes on Return Air Path>,<Number of Nodes>
! <Return Air Path Node>,<Node Type>,<Node Count>,<Node Name>,<AirLoopHVAC Name>
   #Nodes on Return Air Path,2
   Return Air Path Node,Outlet Node,1,1 ZONE VAV 7 DEMAND OUTLET NODE,1 ZONE VAV 7
   Return Air Path Node,Inlet Node,2,BUILDING STORY 7 THERMALZONE RETURN AIR NODE,1 ZONE VAV 7
 Return Air Path,9,1 ZONE VAV 8 RETURN PATH,1 ZONE VAV 8
   #Components on Return Air Path,1
   Return Air Path Component,1,AIRLOOPHVAC:ZONEMIXER,AIR LOOP HVAC ZONE MIXER 9,1 ZONE VAV 8
     #Inlet Nodes on Return Air Path Component,1
     Return Air Path Component Nodes,1,AIRLOOPHVAC:ZONEMIXER,AIR LOOP HVAC ZONE MIXER 9,BUILDING STORY 8 THERMALZONE RETURN AIR NODE,1 ZONE VAV 8 DEMAND OUTLET NODE,1 ZONE VAV 8
! <#Nodes on Return Air Path>,<Number of Nodes>
! <Return Air Path Node>,<Node Type>,<Node Count>,<Node Name>,<AirLoopHVAC Name>
   #Nodes on Return Air Path,2
   Return Air Path Node,Outlet Node,1,1 ZONE VAV 8 DEMAND OUTLET NODE,1 ZONE VAV 8
   Return Air Path Node,Inlet Node,2,BUILDING STORY 8 THERMALZONE RETURN AIR NODE,1 ZONE VAV 8
 Return Air Path,10,1 ZONE VAV 9 RETURN PATH,1 ZONE VAV 9
   #Components on Return Air Path,1
   Return Air Path Component,1,AIRLOOPHVAC:ZONEMIXER,AIR LOOP HVAC ZONE MIXER 10,1 ZONE VAV 9
     #Inlet Nodes on Return Air Path Component,1
     Return Air Path Component Nodes,1,AIRLOOPHVAC:ZONEMIXER,AIR LOOP HVAC ZONE MIXER 10,BUILDING STORY 9 THERMALZONE RETURN AIR NODE,1 ZONE VAV 9 DEMAND OUTLET NODE,1 ZONE VAV 9
! <#Nodes on Return Air Path>,<Number of Nodes>
! <Return Air Path Node>,<Node Type>,<Node Count>,<Node Name>,<AirLoopHVAC Name>
   #Nodes on Return Air Path,2
   Return Air Path Node,Outlet Node,1,1 ZONE VAV 9 DEMAND OUTLET NODE,1 ZONE VAV 9
   Return Air Path Node,Inlet Node,2,BUILDING STORY 9 THERMALZONE RETURN AIR NODE,1 ZONE VAV 9
! ===============================================================
! #Outdoor Air Nodes,<Number of Outdoor Air Nodes>
 #Outdoor Air Nodes,11
! <Outdoor Air Node>,<NodeNumber>,<Node Name>
 Outdoor Air Node,246,1 ZONE VAV OUTDOOR AIR NODE
 Outdoor Air Node,247,1 ZONE VAV 1 OUTDOOR AIR NODE
 Outdoor Air Node,248,1 ZONE VAV 2 OUTDOOR AIR NODE
 Outdoor Air Node,249,1 ZONE VAV 3 OUTDOOR AIR NODE
 Outdoor Air Node,250,1 ZONE VAV 4 OUTDOOR AIR NODE
 Outdoor Air Node,251,1 ZONE VAV 5 OUTDOOR AIR NODE
 Outdoor Air Node,252,1 ZONE VAV 6 OUTDOOR AIR NODE
 Outdoor Air Node,253,1 ZONE VAV 7 OUTDOOR AIR NODE
 Outdoor Air Node,254,1 ZONE VAV 8 OUTDOOR AIR NODE
 Outdoor Air Node,255,1 ZONE VAV 9 OUTDOOR AIR NODE
 Outdoor Air Node,256,MODEL OUTDOOR AIR NODE
! ===============================================================
! <#Component Sets>,<Number of Component Sets>
 #Component Sets,143
! <Component Set>,<Component Set Count>,<Parent Object Type>,<Parent Object Name>,<Component Type>,<Component Name>,<Inlet Node ID>,<Outlet Node ID>,<Description>
 Component Set,1,BRANCH,1 ZONE VAV MAIN BRANCH,AIRLOOPHVAC:OUTDOORAIRSYSTEM,1 ZONE VAV OA SYSTEM,1 ZONE VAV SUPPLY INLET NODE,1 ZONE VAV MIXED AIR NODE,Air Nodes
 Component Set,2,BRANCH,1 ZONE VAV MAIN BRANCH,COIL:COOLING:WATER,1 ZONE VAV CLG COIL,1 ZONE VAV MIXED AIR NODE,1 ZONE VAV CLG COIL OUTLET AIR NODE,Air Nodes
 Component Set,3,BRANCH,1 ZONE VAV MAIN BRANCH,COIL:HEATING:WATER,1 ZONE VAV MAIN HTG COIL,1 ZONE VAV CLG COIL OUTLET AIR NODE,1 ZONE VAV MAIN HTG COIL OUTLET AIR NODE,Air Nodes
 Component Set,4,BRANCH,1 ZONE VAV MAIN BRANCH,FAN:VARIABLEVOLUME,1 ZONE VAV FAN,1 ZONE VAV MAIN HTG COIL OUTLET AIR NODE,1 ZONE VAV SUPPLY OUTLET NODE,Air Nodes
 Component Set,5,BRANCH,1 ZONE VAV 1 MAIN BRANCH,AIRLOOPHVAC:OUTDOORAIRSYSTEM,1 ZONE VAV 1 OA SYSTEM,1 ZONE VAV 1 SUPPLY INLET NODE,1 ZONE VAV 1 MIXED AIR NODE,Air Nodes
 Component Set,6,BRANCH,1 ZONE VAV 1 MAIN BRANCH,COIL:COOLING:WATER,1 ZONE VAV 1 CLG COIL,1 ZONE VAV 1 MIXED AIR NODE,1 ZONE VAV 1 CLG COIL OUTLET AIR NODE,Air Nodes
 Component Set,7,BRANCH,1 ZONE VAV 1 MAIN BRANCH,COIL:HEATING:WATER,1 ZONE VAV 1 MAIN HTG COIL,1 ZONE VAV 1 CLG COIL OUTLET AIR NODE,1 ZONE VAV 1 MAIN HTG COIL OUTLET AIR NODE,Air Nodes
 Component Set,8,BRANCH,1 ZONE VAV 1 MAIN BRANCH,FAN:VARIABLEVOLUME,1 ZONE VAV 1 FAN,1 ZONE VAV 1 MAIN HTG COIL OUTLET AIR NODE,1 ZONE VAV 1 SUPPLY OUTLET NODE,Air Nodes
 Component Set,9,BRANCH,1 ZONE VAV 2 MAIN BRANCH,AIRLOOPHVAC:OUTDOORAIRSYSTEM,1 ZONE VAV 2 OA SYSTEM,1 ZONE VAV 2 SUPPLY INLET NODE,1 ZONE VAV 2 MIXED AIR NODE,Air Nodes
 Component Set,10,BRANCH,1 ZONE VAV 2 MAIN BRANCH,COIL:COOLING:WATER,1 ZONE VAV 2 CLG COIL,1 ZONE VAV 2 MIXED AIR NODE,1 ZONE VAV 2 CLG COIL OUTLET AIR NODE,Air Nodes
 Component Set,11,BRANCH,1 ZONE VAV 2 MAIN BRANCH,COIL:HEATING:WATER,1 ZONE VAV 2 MAIN HTG COIL,1 ZONE VAV 2 CLG COIL OUTLET AIR NODE,1 ZONE VAV 2 MAIN HTG COIL OUTLET AIR NODE,Air Nodes
 Component Set,12,BRANCH,1 ZONE VAV 2 MAIN BRANCH,FAN:VARIABLEVOLUME,1 ZONE VAV 2 FAN,1 ZONE VAV 2 MAIN HTG COIL OUTLET AIR NODE,1 ZONE VAV 2 SUPPLY OUTLET NODE,Air Nodes
 Component Set,13,BRANCH,1 ZONE VAV 3 MAIN BRANCH,AIRLOOPHVAC:OUTDOORAIRSYSTEM,1 ZONE VAV 3 OA SYSTEM,1 ZONE VAV 3 SUPPLY INLET NODE,1 ZONE VAV 3 MIXED AIR NODE,Air Nodes
 Component Set,14,BRANCH,1 ZONE VAV 3 MAIN BRANCH,COIL:COOLING:WATER,1 ZONE VAV 3 CLG COIL,1 ZONE VAV 3 MIXED AIR NODE,1 ZONE VAV 3 CLG COIL OUTLET AIR NODE,Air Nodes
 Component Set,15,BRANCH,1 ZONE VAV 3 MAIN BRANCH,COIL:HEATING:WATER,1 ZONE VAV 3 MAIN HTG COIL,1 ZONE VAV 3 CLG COIL OUTLET AIR NODE,1 ZONE VAV 3 MAIN HTG COIL OUTLET AIR NODE,Air Nodes
 Component Set,16,BRANCH,1 ZONE VAV 3 MAIN BRANCH,FAN:VARIABLEVOLUME,1 ZONE VAV 3 FAN,1 ZONE VAV 3 MAIN HTG COIL OUTLET AIR NODE,1 ZONE VAV 3 SUPPLY OUTLET NODE,Air Nodes
 Component Set,17,BRANCH,1 ZONE VAV 4 MAIN BRANCH,AIRLOOPHVAC:OUTDOORAIRSYSTEM,1 ZONE VAV 4 OA SYSTEM,1 ZONE VAV 4 SUPPLY INLET NODE,1 ZONE VAV 4 MIXED AIR NODE,Air Nodes
 Component Set,18,BRANCH,1 ZONE VAV 4 MAIN BRANCH,COIL:COOLING:WATER,1 ZONE VAV 4 CLG COIL,1 ZONE VAV 4 MIXED AIR NODE,1 ZONE VAV 4 CLG COIL OUTLET AIR NODE,Air Nodes
 Component Set,19,BRANCH,1 ZONE VAV 4 MAIN BRANCH,COIL:HEATING:WATER,1 ZONE VAV 4 MAIN HTG COIL,1 ZONE VAV 4 CLG COIL OUTLET AIR NODE,1 ZONE VAV 4 MAIN HTG COIL OUTLET AIR NODE,Air Nodes
 Component Set,20,BRANCH,1 ZONE VAV 4 MAIN BRANCH,FAN:VARIABLEVOLUME,1 ZONE VAV 4 FAN,1 ZONE VAV 4 MAIN HTG COIL OUTLET AIR NODE,1 ZONE VAV 4 SUPPLY OUTLET NODE,Air Nodes
 Component Set,21,BRANCH,1 ZONE VAV 5 MAIN BRANCH,AIRLOOPHVAC:OUTDOORAIRSYSTEM,1 ZONE VAV 5 OA SYSTEM,1 ZONE VAV 5 SUPPLY INLET NODE,1 ZONE VAV 5 MIXED AIR NODE,Air Nodes
 Component Set,22,BRANCH,1 ZONE VAV 5 MAIN BRANCH,COIL:COOLING:WATER,1 ZONE VAV 5 CLG COIL,1 ZONE VAV 5 MIXED AIR NODE,1 ZONE VAV 5 CLG COIL OUTLET AIR NODE,Air Nodes
 Component Set,23,BRANCH,1 ZONE VAV 5 MAIN BRANCH,COIL:HEATING:WATER,1 ZONE VAV 5 MAIN HTG COIL,1 ZONE VAV 5 CLG COIL OUTLET AIR NODE,1 ZONE VAV 5 MAIN HTG COIL OUTLET AIR NODE,Air Nodes
 Component Set,24,BRANCH,1 ZONE VAV 5 MAIN BRANCH,FAN:VARIABLEVOLUME,1 ZONE VAV 5 FAN,1 ZONE VAV 5 MAIN HTG COIL OUTLET AIR NODE,1 ZONE VAV 5 SUPPLY OUTLET NODE,Air Nodes
 Component Set,25,BRANCH,1 ZONE VAV 6 MAIN BRANCH,AIRLOOPHVAC:OUTDOORAIRSYSTEM,1 ZONE VAV 6 OA SYSTEM,1 ZONE VAV 6 SUPPLY INLET NODE,1 ZONE VAV 6 MIXED AIR NODE,Air Nodes
 Component Set,26,BRANCH,1 ZONE VAV 6 MAIN BRANCH,COIL:COOLING:WATER,1 ZONE VAV 6 CLG COIL,1 ZONE VAV 6 MIXED AIR NODE,1 ZONE VAV 6 CLG COIL OUTLET AIR NODE,Air Nodes
 Component Set,27,BRANCH,1 ZONE VAV 6 MAIN BRANCH,COIL:HEATING:WATER,1 ZONE VAV 6 MAIN HTG COIL,1 ZONE VAV 6 CLG COIL OUTLET AIR NODE,1 ZONE VAV 6 MAIN HTG COIL OUTLET AIR NODE,Air Nodes
 Component Set,28,BRANCH,1 ZONE VAV 6 MAIN BRANCH,FAN:VARIABLEVOLUME,1 ZONE VAV 6 FAN,1 ZONE VAV 6 MAIN HTG COIL OUTLET AIR NODE,1 ZONE VAV 6 SUPPLY OUTLET NODE,Air Nodes
 Component Set,29,BRANCH,1 ZONE VAV 7 MAIN BRANCH,AIRLOOPHVAC:OUTDOORAIRSYSTEM,1 ZONE VAV 7 OA SYSTEM,1 ZONE VAV 7 SUPPLY INLET NODE,1 ZONE VAV 7 MIXED AIR NODE,Air Nodes
 Component Set,30,BRANCH,1 ZONE VAV 7 MAIN BRANCH,COIL:COOLING:WATER,1 ZONE VAV 7 CLG COIL,1 ZONE VAV 7 MIXED AIR NODE,1 ZONE VAV 7 CLG COIL OUTLET AIR NODE,Air Nodes
 Component Set,31,BRANCH,1 ZONE VAV 7 MAIN BRANCH,COIL:HEATING:WATER,1 ZONE VAV 7 MAIN HTG COIL,1 ZONE VAV 7 CLG COIL OUTLET AIR NODE,1 ZONE VAV 7 MAIN HTG COIL OUTLET AIR NODE,Air Nodes
 Component Set,32,BRANCH,1 ZONE VAV 7 MAIN BRANCH,FAN:VARIABLEVOLUME,1 ZONE VAV 7 FAN,1 ZONE VAV 7 MAIN HTG COIL OUTLET AIR NODE,1 ZONE VAV 7 SUPPLY OUTLET NODE,Air Nodes
 Component Set,33,BRANCH,1 ZONE VAV 8 MAIN BRANCH,AIRLOOPHVAC:OUTDOORAIRSYSTEM,1 ZONE VAV 8 OA SYSTEM,1 ZONE VAV 8 SUPPLY INLET NODE,1 ZONE VAV 8 MIXED AIR NODE,Air Nodes
 Component Set,34,BRANCH,1 ZONE VAV 8 MAIN BRANCH,COIL:COOLING:WATER,1 ZONE VAV 8 CLG COIL,1 ZONE VAV 8 MIXED AIR NODE,1 ZONE VAV 8 CLG COIL OUTLET AIR NODE,Air Nodes
 Component Set,35,BRANCH,1 ZONE VAV 8 MAIN BRANCH,COIL:HEATING:WATER,1 ZONE VAV 8 MAIN HTG COIL,1 ZONE VAV 8 CLG COIL OUTLET AIR NODE,1 ZONE VAV 8 MAIN HTG COIL OUTLET AIR NODE,Air Nodes
 Component Set,36,BRANCH,1 ZONE VAV 8 MAIN BRANCH,FAN:VARIABLEVOLUME,1 ZONE VAV 8 FAN,1 ZONE VAV 8 MAIN HTG COIL OUTLET AIR NODE,1 ZONE VAV 8 SUPPLY OUTLET NODE,Air Nodes
 Component Set,37,BRANCH,1 ZONE VAV 9 MAIN BRANCH,AIRLOOPHVAC:OUTDOORAIRSYSTEM,1 ZONE VAV 9 OA SYSTEM,1 ZONE VAV 9 SUPPLY INLET NODE,1 ZONE VAV 9 MIXED AIR NODE,Air Nodes
 Component Set,38,BRANCH,1 ZONE VAV 9 MAIN BRANCH,COIL:COOLING:WATER,1 ZONE VAV 9 CLG COIL,1 ZONE VAV 9 MIXED AIR NODE,1 ZONE VAV 9 CLG COIL OUTLET AIR NODE,Air Nodes
 Component Set,39,BRANCH,1 ZONE VAV 9 MAIN BRANCH,COIL:HEATING:WATER,1 ZONE VAV 9 MAIN HTG COIL,1 ZONE VAV 9 CLG COIL OUTLET AIR NODE,1 ZONE VAV 9 MAIN HTG COIL OUTLET AIR NODE,Air Nodes
 Component Set,40,BRANCH,1 ZONE VAV 9 MAIN BRANCH,FAN:VARIABLEVOLUME,1 ZONE VAV 9 FAN,1 ZONE VAV 9 MAIN HTG COIL OUTLET AIR NODE,1 ZONE VAV 9 SUPPLY OUTLET NODE,Air Nodes
 Component Set,41,BRANCH,CHILLED WATER LOOP SUPPLY INLET BRANCH,PUMP:CONSTANTSPEED,CHILLED WATER LOOP PRIMARY PUMP,CHILLED WATER LOOP SUPPLY INLET NODE,CHILLED WATER LOOP PRIMARY PUMP OUTLET WATER NODE,Water Nodes
 Component Set,42,BRANCH,CHILLED WATER LOOP SUPPLY BRANCH 1,CHILLER:ELECTRIC:EIR,90.1-2004 WATERCOOLED  ROTARY SCREW CHILLER 0 1110TONS 0.6KW/TON,90.1-2004 WATERCOOLED  ROTARY SCREW CHILLER 0 SUPPLY INLET WATER NODE,90.1-2004 WATERCOOLED  ROTARY SCREW CHILLER 0 SUPPLY OUTLET WATER NODE,Chilled Water Nodes
 Component Set,43,BRANCH,CHILLED WATER LOOP SUPPLY BRANCH 2,PIPE:ADIABATIC,CHILLED WATER LOOP CHILLER BYPASS,CHILLED WATER LOOP CHILLER BYPASS INLET WATER NODE,CHILLED WATER LOOP CHILLER BYPASS OUTLET WATER NODE,Pipe Nodes
 Component Set,44,BRANCH,CHILLED WATER LOOP SUPPLY OUTLET BRANCH,PIPE:ADIABATIC,CHILLED WATER LOOP SUPPLY OUTLET,CHILLED WATER LOOP SUPPLY OUTLET INLET WATER NODE,CHILLED WATER LOOP SUPPLY OUTLET NODE,Pipe Nodes
 Component Set,45,BRANCH,CHILLED WATER LOOP DEMAND INLET BRANCH,PIPE:ADIABATIC,CHILLED WATER LOOP DEMAND INLET,CHILLED WATER LOOP DEMAND INLET NODE,CHILLED WATER LOOP SECONDARY PUMP INLET WATER NODE,Pipe Nodes
 Component Set,46,BRANCH,CHILLED WATER LOOP DEMAND INLET BRANCH,PUMP:VARIABLESPEED,CHILLED WATER LOOP SECONDARY PUMP,CHILLED WATER LOOP SECONDARY PUMP INLET WATER NODE,CHILLED WATER LOOP SECONDARY PUMP OUTLET WATER NODE,Water Nodes
 Component Set,47,BRANCH,CHILLED WATER LOOP DEMAND BRANCH 1,PIPE:ADIABATIC,CHILLED WATER LOOP COIL BYPASS,CHILLED WATER LOOP COIL BYPASS INLET WATER NODE,CHILLED WATER LOOP COIL BYPASS OUTLET WATER NODE,Pipe Nodes
 Component Set,48,BRANCH,CHILLED WATER LOOP DEMAND BRANCH 2,COIL:COOLING:WATER,1 ZONE VAV CLG COIL,1 ZONE VAV CLG COIL INLET WATER NODE,1 ZONE VAV CLG COIL OUTLET WATER NODE,Water Nodes
 Component Set,49,BRANCH,CHILLED WATER LOOP DEMAND BRANCH 3,COIL:COOLING:WATER,1 ZONE VAV 1 CLG COIL,1 ZONE VAV 1 CLG COIL INLET WATER NODE,1 ZONE VAV 1 CLG COIL OUTLET WATER NODE,Water Nodes
 Component Set,50,BRANCH,CHILLED WATER LOOP DEMAND BRANCH 4,COIL:COOLING:WATER,1 ZONE VAV 2 CLG COIL,1 ZONE VAV 2 CLG COIL INLET WATER NODE,1 ZONE VAV 2 CLG COIL OUTLET WATER NODE,Water Nodes
 Component Set,51,BRANCH,CHILLED WATER LOOP DEMAND BRANCH 5,COIL:COOLING:WATER,1 ZONE VAV 3 CLG COIL,1 ZONE VAV 3 CLG COIL INLET WATER NODE,1 ZONE VAV 3 CLG COIL OUTLET WATER NODE,Water Nodes
 Component Set,52,BRANCH,CHILLED WATER LOOP DEMAND BRANCH 6,COIL:COOLING:WATER,1 ZONE VAV 4 CLG COIL,1 ZONE VAV 4 CLG COIL INLET WATER NODE,1 ZONE VAV 4 CLG COIL OUTLET WATER NODE,Water Nodes
 Component Set,53,BRANCH,CHILLED WATER LOOP DEMAND BRANCH 7,COIL:COOLING:WATER,1 ZONE VAV 5 CLG COIL,1 ZONE VAV 5 CLG COIL INLET WATER NODE,1 ZONE VAV 5 CLG COIL OUTLET WATER NODE,Water Nodes
 Component Set,54,BRANCH,CHILLED WATER LOOP DEMAND BRANCH 8,COIL:COOLING:WATER,1 ZONE VAV 6 CLG COIL,1 ZONE VAV 6 CLG COIL INLET WATER NODE,1 ZONE VAV 6 CLG COIL OUTLET WATER NODE,Water Nodes
 Component Set,55,BRANCH,CHILLED WATER LOOP DEMAND BRANCH 9,COIL:COOLING:WATER,1 ZONE VAV 7 CLG COIL,1 ZONE VAV 7 CLG COIL INLET WATER NODE,1 ZONE VAV 7 CLG COIL OUTLET WATER NODE,Water Nodes
 Component Set,56,BRANCH,CHILLED WATER LOOP DEMAND BRANCH 10,COIL:COOLING:WATER,1 ZONE VAV 8 CLG COIL,1 ZONE VAV 8 CLG COIL INLET WATER NODE,1 ZONE VAV 8 CLG COIL OUTLET WATER NODE,Water Nodes
 Component Set,57,BRANCH,CHILLED WATER LOOP DEMAND BRANCH 11,COIL:COOLING:WATER,1 ZONE VAV 9 CLG COIL,1 ZONE VAV 9 CLG COIL INLET WATER NODE,1 ZONE VAV 9 CLG COIL OUTLET WATER NODE,Water Nodes
 Component Set,58,BRANCH,CHILLED WATER LOOP DEMAND BYPASS BRANCH,PIPE:ADIABATIC,CHILLED WATER LOOP DEMAND BYPASS PIPE,CHILLED WATER LOOP DEMAND BYPASS PIPE INLET NODE,CHILLED WATER LOOP DEMAND BYPASS PIPE OUTLET NODE,Pipe Nodes
 Component Set,59,BRANCH,CHILLED WATER LOOP DEMAND OUTLET BRANCH,PIPE:ADIABATIC,CHILLED WATER LOOP DEMAND OUTLET,CHILLED WATER LOOP DEMAND OUTLET INLET WATER NODE,CHILLED WATER LOOP DEMAND OUTLET NODE,Pipe Nodes
 Component Set,60,BRANCH,CONDENSER WATER LOOP SUPPLY INLET BRANCH,PUMP:CONSTANTSPEED,CONDENSER WATER LOOP CONSTANT PUMP,CONDENSER WATER LOOP SUPPLY INLET NODE,CONDENSER WATER LOOP CONSTANT PUMP OUTLET WATER NODE,Water Nodes
 Component Set,61,BRANCH,CONDENSER WATER LOOP SUPPLY BRANCH 1,COOLINGTOWER:TWOSPEED,PROPELLER OR AXIAL TWOSPEED FAN OPEN COOLING TOWER 38.2 GPM/HP,PROPELLER OR AXIAL TWOSPEED FAN OPEN COOLING TOWER INLET WATER NODE,PROPELLER OR AXIAL TWOSPEED FAN OPEN COOLING TOWER OUTLET WATER NODE,Chilled Water Nodes
 Component Set,62,BRANCH,CONDENSER WATER LOOP SUPPLY BRANCH 2,PIPE:ADIABATIC,CONDENSER WATER LOOP COOLING TOWER BYPASS,CONDENSER WATER LOOP COOLING TOWER BYPASS INLET WATER NODE,CONDENSER WATER LOOP COOLING TOWER BYPASS OUTLET WATER NODE,Pipe Nodes
 Component Set,63,BRANCH,CONDENSER WATER LOOP SUPPLY OUTLET BRANCH,PIPE:ADIABATIC,CONDENSER WATER LOOP SUPPLY OUTLET,CONDENSER WATER LOOP SUPPLY OUTLET INLET WATER NODE,CONDENSER WATER LOOP SUPPLY OUTLET NODE,Pipe Nodes
 Component Set,64,BRANCH,CONDENSER WATER LOOP DEMAND INLET BRANCH,PIPE:ADIABATIC,CONDENSER WATER LOOP DEMAND INLET,CONDENSER WATER LOOP DEMAND INLET NODE,CONDENSER WATER LOOP DEMAND INLET OUTLET WATER NODE,Pipe Nodes
 Component Set,65,BRANCH,CONDENSER WATER LOOP DEMAND BRANCH 1,PIPE:ADIABATIC,CONDENSER WATER LOOP CHILLER BYPASS,CONDENSER WATER LOOP CHILLER BYPASS INLET WATER NODE,CONDENSER WATER LOOP CHILLER BYPASS OUTLET WATER NODE,Pipe Nodes
 Component Set,66,BRANCH,CONDENSER WATER LOOP DEMAND BRANCH 2,CHILLER:ELECTRIC:EIR,90.1-2004 WATERCOOLED  ROTARY SCREW CHILLER 0 1110TONS 0.6KW/TON,90.1-2004 WATERCOOLED  ROTARY SCREW CHILLER 0 DEMAND INLET WATER NODE,90.1-2004 WATERCOOLED  ROTARY SCREW CHILLER 0 DEMAND OUTLET WATER NODE,Condenser Water Nodes
 Component Set,67,BRANCH,CONDENSER WATER LOOP DEMAND BYPASS BRANCH,PIPE:ADIABATIC,CONDENSER WATER LOOP DEMAND BYPASS PIPE,CONDENSER WATER LOOP DEMAND BYPASS PIPE INLET NODE,CONDENSER WATER LOOP DEMAND BYPASS PIPE OUTLET NODE,Pipe Nodes
 Component Set,68,BRANCH,CONDENSER WATER LOOP DEMAND OUTLET BRANCH,PIPE:ADIABATIC,CONDENSER WATER LOOP DEMAND OUTLET,CONDENSER WATER LOOP DEMAND OUTLET INLET WATER NODE,CONDENSER WATER LOOP DEMAND OUTLET NODE,Pipe Nodes
 Component Set,69,BRANCH,HOT WATER LOOP SUPPLY INLET BRANCH,PUMP:VARIABLESPEED,HOT WATER LOOP PUMP,HOT WATER LOOP SUPPLY INLET NODE,HOT WATER LOOP PUMP OUTLET WATER NODE,Water Nodes
 Component Set,70,BRANCH,HOT WATER LOOP SUPPLY BRANCH 1,BOILER:HOTWATER,BOILER 12808KBTU/HR 0.75 THERMAL EFF,BOILER INLET WATER NODE,BOILER OUTLET WATER NODE,Hot Water Nodes
 Component Set,71,BRANCH,HOT WATER LOOP SUPPLY BRANCH 2,PIPE:ADIABATIC,HOT WATER LOOP SUPPLY EQUIPMENT BYPASS,HOT WATER LOOP SUPPLY EQUIPMENT BYPASS INLET WATER NODE,HOT WATER LOOP SUPPLY EQUIPMENT BYPASS OUTLET WATER NODE,Pipe Nodes
 Component Set,72,BRANCH,HOT WATER LOOP SUPPLY OUTLET BRANCH,PIPE:ADIABATIC,HOT WATER LOOP SUPPLY OUTLET,HOT WATER LOOP SUPPLY OUTLET INLET WATER NODE,HOT WATER LOOP SUPPLY OUTLET NODE,Pipe Nodes
 Component Set,73,BRANCH,HOT WATER LOOP DEMAND INLET BRANCH,PIPE:ADIABATIC,HOT WATER LOOP DEMAND INLET,HOT WATER LOOP DEMAND INLET NODE,HOT WATER LOOP DEMAND INLET OUTLET WATER NODE,Pipe Nodes
 Component Set,74,BRANCH,HOT WATER LOOP DEMAND BRANCH 1,PIPE:ADIABATIC,HOT WATER LOOP COIL BYPASS,HOT WATER LOOP COIL BYPASS INLET WATER NODE,HOT WATER LOOP COIL BYPASS OUTLET WATER NODE,Pipe Nodes
 Component Set,75,BRANCH,HOT WATER LOOP DEMAND BRANCH 2,COIL:HEATING:WATER,1 ZONE VAV MAIN HTG COIL,1 ZONE VAV MAIN HTG COIL INLET WATER NODE,1 ZONE VAV MAIN HTG COIL OUTLET WATER NODE,Water Nodes
 Component Set,76,BRANCH,HOT WATER LOOP DEMAND BRANCH 3,COIL:HEATING:WATER,BUILDING STORY 1 THERMALZONE REHEAT COIL,BUILDING STORY 1 THERMALZONE REHEAT COIL INLET WATER NODE,BUILDING STORY 1 THERMALZONE REHEAT COIL OUTLET WATER NODE,Water Nodes
 Component Set,77,BRANCH,HOT WATER LOOP DEMAND BRANCH 4,COIL:HEATING:WATER,1 ZONE VAV 1 MAIN HTG COIL,1 ZONE VAV 1 MAIN HTG COIL INLET WATER NODE,1 ZONE VAV 1 MAIN HTG COIL OUTLET WATER NODE,Water Nodes
 Component Set,78,BRANCH,HOT WATER LOOP DEMAND BRANCH 5,COIL:HEATING:WATER,BUILDING STORY 10 THERMALZONE REHEAT COIL,BUILDING STORY 10 THERMALZONE REHEAT COIL INLET WATER NODE,BUILDING STORY 10 THERMALZONE REHEAT COIL OUTLET WATER NODE,Water Nodes
 Component Set,79,BRANCH,HOT WATER LOOP DEMAND BRANCH 6,COIL:HEATING:WATER,1 ZONE VAV 2 MAIN HTG COIL,1 ZONE VAV 2 MAIN HTG COIL INLET WATER NODE,1 ZONE VAV 2 MAIN HTG COIL OUTLET WATER NODE,Water Nodes
 Component Set,80,BRANCH,HOT WATER LOOP DEMAND BRANCH 7,COIL:HEATING:WATER,BUILDING STORY 2 THERMALZONE REHEAT COIL,BUILDING STORY 2 THERMALZONE REHEAT COIL INLET WATER NODE,BUILDING STORY 2 THERMALZONE REHEAT COIL OUTLET WATER NODE,Water Nodes
 Component Set,81,BRANCH,HOT WATER LOOP DEMAND BRANCH 8,COIL:HEATING:WATER,1 ZONE VAV 3 MAIN HTG COIL,1 ZONE VAV 3 MAIN HTG COIL INLET WATER NODE,1 ZONE VAV 3 MAIN HTG COIL OUTLET WATER NODE,Water Nodes
 Component Set,82,BRANCH,HOT WATER LOOP DEMAND BRANCH 9,COIL:HEATING:WATER,BUILDING STORY 3 THERMALZONE REHEAT COIL,BUILDING STORY 3 THERMALZONE REHEAT COIL INLET WATER NODE,BUILDING STORY 3 THERMALZONE REHEAT COIL OUTLET WATER NODE,Water Nodes
 Component Set,83,BRANCH,HOT WATER LOOP DEMAND BRANCH 10,COIL:HEATING:WATER,1 ZONE VAV 4 MAIN HTG COIL,1 ZONE VAV 4 MAIN HTG COIL INLET WATER NODE,1 ZONE VAV 4 MAIN HTG COIL OUTLET WATER NODE,Water Nodes
 Component Set,84,BRANCH,HOT WATER LOOP DEMAND BRANCH 11,COIL:HEATING:WATER,BUILDING STORY 4 THERMALZONE REHEAT COIL,BUILDING STORY 4 THERMALZONE REHEAT COIL INLET WATER NODE,BUILDING STORY 4 THERMALZONE REHEAT COIL OUTLET WATER NODE,Water Nodes
 Component Set,85,BRANCH,HOT WATER LOOP DEMAND BRANCH 12,COIL:HEATING:WATER,1 ZONE VAV 5 MAIN HTG COIL,1 ZONE VAV 5 MAIN HTG COIL INLET WATER NODE,1 ZONE VAV 5 MAIN HTG COIL OUTLET WATER NODE,Water Nodes
 Component Set,86,BRANCH,HOT WATER LOOP DEMAND BRANCH 13,COIL:HEATING:WATER,BUILDING STORY 5 THERMALZONE REHEAT COIL,BUILDING STORY 5 THERMALZONE REHEAT COIL INLET WATER NODE,BUILDING STORY 5 THERMALZONE REHEAT COIL OUTLET WATER NODE,Water Nodes
 Component Set,87,BRANCH,HOT WATER LOOP DEMAND BRANCH 14,COIL:HEATING:WATER,1 ZONE VAV 6 MAIN HTG COIL,1 ZONE VAV 6 MAIN HTG COIL INLET WATER NODE,1 ZONE VAV 6 MAIN HTG COIL OUTLET WATER NODE,Water Nodes
 Component Set,88,BRANCH,HOT WATER LOOP DEMAND BRANCH 15,COIL:HEATING:WATER,BUILDING STORY 6 THERMALZONE REHEAT COIL,BUILDING STORY 6 THERMALZONE REHEAT COIL INLET WATER NODE,BUILDING STORY 6 THERMALZONE REHEAT COIL OUTLET WATER NODE,Water Nodes
 Component Set,89,BRANCH,HOT WATER LOOP DEMAND BRANCH 16,COIL:HEATING:WATER,1 ZONE VAV 7 MAIN HTG COIL,1 ZONE VAV 7 MAIN HTG COIL INLET WATER NODE,1 ZONE VAV 7 MAIN HTG COIL OUTLET WATER NODE,Water Nodes
 Component Set,90,BRANCH,HOT WATER LOOP DEMAND BRANCH 17,COIL:HEATING:WATER,BUILDING STORY 7 THERMALZONE REHEAT COIL,BUILDING STORY 7 THERMALZONE REHEAT COIL INLET WATER NODE,BUILDING STORY 7 THERMALZONE REHEAT COIL OUTLET WATER NODE,Water Nodes
 Component Set,91,BRANCH,HOT WATER LOOP DEMAND BRANCH 18,COIL:HEATING:WATER,1 ZONE VAV 8 MAIN HTG COIL,1 ZONE VAV 8 MAIN HTG COIL INLET WATER NODE,1 ZONE VAV 8 MAIN HTG COIL OUTLET WATER NODE,Water Nodes
 Component Set,92,BRANCH,HOT WATER LOOP DEMAND BRANCH 19,COIL:HEATING:WATER,BUILDING STORY 8 THERMALZONE REHEAT COIL,BUILDING STORY 8 THERMALZONE REHEAT COIL INLET WATER NODE,BUILDING STORY 8 THERMALZONE REHEAT COIL OUTLET WATER NODE,Water Nodes
 Component Set,93,BRANCH,HOT WATER LOOP DEMAND BRANCH 20,COIL:HEATING:WATER,1 ZONE VAV 9 MAIN HTG COIL,1 ZONE VAV 9 MAIN HTG COIL INLET WATER NODE,1 ZONE VAV 9 MAIN HTG COIL OUTLET WATER NODE,Water Nodes
 Component Set,94,BRANCH,HOT WATER LOOP DEMAND BRANCH 21,COIL:HEATING:WATER,BUILDING STORY 9 THERMALZONE REHEAT COIL,BUILDING STORY 9 THERMALZONE REHEAT COIL INLET WATER NODE,BUILDING STORY 9 THERMALZONE REHEAT COIL OUTLET WATER NODE,Water Nodes
 Component Set,95,BRANCH,HOT WATER LOOP DEMAND BYPASS BRANCH,PIPE:ADIABATIC,HOT WATER LOOP DEMAND BYPASS PIPE,HOT WATER LOOP DEMAND BYPASS PIPE INLET NODE,HOT WATER LOOP DEMAND BYPASS PIPE OUTLET NODE,Pipe Nodes
 Component Set,96,BRANCH,HOT WATER LOOP DEMAND OUTLET BRANCH,PIPE:ADIABATIC,HOT WATER LOOP DEMAND OUTLET,HOT WATER LOOP DEMAND OUTLET INLET WATER NODE,HOT WATER LOOP DEMAND OUTLET NODE,Pipe Nodes
 Component Set,97,BRANCH,OUTPATIENT SHARED SERVICE WATER LOOP SUPPLY INLET BRANCH,PUMP:CONSTANTSPEED,OUTPATIENT SHARED SERVICE WATER LOOP CIRCULATOR PUMP,OUTPATIENT SHARED SERVICE WATER LOOP SUPPLY INLET NODE,OUTPATIENT SHARED SERVICE WATER LOOP CIRCULATOR PUMP OUTLET WATER NODE,Water Nodes
 Component Set,98,BRANCH,OUTPATIENT SHARED SERVICE WATER LOOP SUPPLY BRANCH 1,WATERHEATER:MIXED,555GAL NATURALGAS WATER HEATER - 555KBTU/HR 0.803 THERM EFF,555GAL NATURALGAS WATER HEATER - 555KBTU/HR SUPPLY INLET WATER NODE,555GAL NATURALGAS WATER HEATER - 555KBTU/HR SUPPLY OUTLET WATER NODE,Use Side Water Nodes
 Component Set,99,BRANCH,OUTPATIENT SHARED SERVICE WATER LOOP SUPPLY BRANCH 2,PIPE:ADIABATIC,PIPE ADIABATIC 1,PIPE ADIABATIC 1 INLET WATER NODE,PIPE ADIABATIC 1 OUTLET WATER NODE,Pipe Nodes
 Component Set,100,BRANCH,OUTPATIENT SHARED SERVICE WATER LOOP SUPPLY OUTLET BRANCH,PIPE:ADIABATIC,PIPE ADIABATIC 3,PIPE ADIABATIC 3 INLET WATER NODE,OUTPATIENT SHARED SERVICE WATER LOOP SUPPLY OUTLET NODE,Pipe Nodes
 Component Set,101,BRANCH,OUTPATIENT SHARED SERVICE WATER LOOP DEMAND INLET BRANCH,PIPE:INDOOR,OUTPATIENT SHARED SERVICE WATER LOOP PIPE 581.5968127363554FT,OUTPATIENT SHARED SERVICE WATER LOOP DEMAND INLET NODE,OUTPATIENT SHARED SERVICE WATER LOOP PIPE 581.5968127363554FT OUTLET WATER NODE,Pipe Nodes
 Component Set,102,BRANCH,OUTPATIENT SHARED SERVICE WATER LOOP DEMAND BRANCH 1,PIPE:ADIABATIC,PIPE ADIABATIC 2,PIPE ADIABATIC 2 INLET WATER NODE,PIPE ADIABATIC 2 OUTLET WATER NODE,Pipe Nodes
 Component Set,103,BRANCH,OUTPATIENT SHARED SERVICE WATER LOOP DEMAND BRANCH 2,WATERUSE:CONNECTIONS,OUTPATIENT ANESTHESIA - 90.1-2004 WUC 0.35GPM AT 140F,OUTPATIENT ANESTHESIA - 90.1-2004 WUC 0.35GPM AT 140F INLET WATER NODE,OUTPATIENT ANESTHESIA - 90.1-2004 WUC 0.35GPM AT 140F OUTLET WATER NODE,DHW Nodes
 Component Set,104,BRANCH,OUTPATIENT SHARED SERVICE WATER LOOP DEMAND BRANCH 3,WATERUSE:CONNECTIONS,OUTPATIENT MRI - 90.1-2004 WUC 0.36GPM AT 140F,OUTPATIENT MRI - 90.1-2004 WUC 0.36GPM AT 140F INLET WATER NODE,OUTPATIENT MRI - 90.1-2004 WUC 0.36GPM AT 140F OUTLET WATER NODE,DHW Nodes
 Component Set,105,BRANCH,OUTPATIENT SHARED SERVICE WATER LOOP DEMAND BRANCH 4,WATERUSE:CONNECTIONS,OUTPATIENT MRI_CONTROL - 90.1-2004 WUC 0.36GPM AT 140F,OUTPATIENT MRI_CONTROL - 90.1-2004 WUC 0.36GPM AT 140F INLET WATER NODE,OUTPATIENT MRI_CONTROL - 90.1-2004 WUC 0.36GPM AT 140F OUTLET WATER NODE,DHW Nodes
 Component Set,106,BRANCH,OUTPATIENT SHARED SERVICE WATER LOOP DEMAND BRANCH 5,WATERUSE:CONNECTIONS,OUTPATIENT OR - 90.1-2004 WUC 6.45GPM AT 140F,OUTPATIENT OR - 90.1-2004 WUC 6.45GPM AT 140F INLET WATER NODE,OUTPATIENT OR - 90.1-2004 WUC 6.45GPM AT 140F OUTLET WATER NODE,DHW Nodes
 Component Set,107,BRANCH,OUTPATIENT SHARED SERVICE WATER LOOP DEMAND BRANCH 6,WATERUSE:CONNECTIONS,OUTPATIENT PACU - 90.1-2004 WUC 1.08GPM AT 140F,OUTPATIENT PACU - 90.1-2004 WUC 1.08GPM AT 140F INLET WATER NODE,OUTPATIENT PACU - 90.1-2004 WUC 1.08GPM AT 140F OUTLET WATER NODE,DHW Nodes
 Component Set,108,BRANCH,OUTPATIENT SHARED SERVICE WATER LOOP DEMAND BRANCH 7,WATERUSE:CONNECTIONS,OUTPATIENT PHYSICALTHERAPY - 90.1-2004 WUC 0.72GPM AT 140F,OUTPATIENT PHYSICALTHERAPY - 90.1-2004 WUC 0.72GPM AT 140F INLET WATER NODE,OUTPATIENT PHYSICALTHERAPY - 90.1-2004 WUC 0.72GPM AT 140F OUTLET WATER NODE,DHW Nodes
 Component Set,109,BRANCH,OUTPATIENT SHARED SERVICE WATER LOOP DEMAND BRANCH 8,WATERUSE:CONNECTIONS,OUTPATIENT PREOP - 90.1-2004 WUC 0.72GPM AT 140F,OUTPATIENT PREOP - 90.1-2004 WUC 0.72GPM AT 140F INLET WATER NODE,OUTPATIENT PREOP - 90.1-2004 WUC 0.72GPM AT 140F OUTLET WATER NODE,DHW Nodes
 Component Set,110,BRANCH,OUTPATIENT SHARED SERVICE WATER LOOP DEMAND BRANCH 9,WATERUSE:CONNECTIONS,OUTPATIENT PROCEDUREROOM - 90.1-2004 WUC 0.36GPM AT 140F,OUTPATIENT PROCEDUREROOM - 90.1-2004 WUC 0.36GPM AT 140F INLET WATER NODE,OUTPATIENT PROCEDUREROOM - 90.1-2004 WUC 0.36GPM AT 140F OUTLET WATER NODE,DHW Nodes
 Component Set,111,BRANCH,OUTPATIENT SHARED SERVICE WATER LOOP DEMAND BRANCH 10,WATERUSE:CONNECTIONS,OUTPATIENT XRAY - 90.1-2004 WUC 0.36GPM AT 140F,OUTPATIENT XRAY - 90.1-2004 WUC 0.36GPM AT 140F INLET WATER NODE,OUTPATIENT XRAY - 90.1-2004 WUC 0.36GPM AT 140F OUTLET WATER NODE,DHW Nodes
 Component Set,112,BRANCH,OUTPATIENT SHARED SERVICE WATER LOOP DEMAND BYPASS BRANCH,PIPE:ADIABATIC,OUTPATIENT SHARED SERVICE WATER LOOP DEMAND BYPASS PIPE,OUTPATIENT SHARED SERVICE WATER LOOP DEMAND BYPASS PIPE INLET NODE,OUTPATIENT SHARED SERVICE WATER LOOP DEMAND BYPASS PIPE OUTLET NODE,Pipe Nodes
 Component Set,113,BRANCH,OUTPATIENT SHARED SERVICE WATER LOOP DEMAND OUTLET BRANCH,PIPE:ADIABATIC,PIPE ADIABATIC 4,PIPE ADIABATIC 4 INLET WATER NODE,OUTPATIENT SHARED SERVICE WATER LOOP DEMAND OUTLET NODE,Pipe Nodes
 Component Set,114,ZONEHVAC:AIRDISTRIBUTIONUNIT,ADU BUILDING STORY 1 THERMALZONE VAV TERMINAL,AIRTERMINAL:SINGLEDUCT:VAV:REHEAT,BUILDING STORY 1 THERMALZONE VAV TERMINAL,BUILDING STORY 1 THERMALZONE VAV TERMINAL INLET AIR NODE,BUILDING STORY 1 THERMALZONE VAV TERMINAL OUTLET AIR NODE,Air Nodes
 Component Set,115,ZONEHVAC:AIRDISTRIBUTIONUNIT,ADU BUILDING STORY 10 THERMALZONE VAV TERMINAL,AIRTERMINAL:SINGLEDUCT:VAV:REHEAT,BUILDING STORY 10 THERMALZONE VAV TERMINAL,BUILDING STORY 10 THERMALZONE VAV TERMINAL INLET AIR NODE,BUILDING STORY 10 THERMALZONE VAV TERMINAL OUTLET AIR NODE,Air Nodes
 Component Set,116,ZONEHVAC:AIRDISTRIBUTIONUNIT,ADU BUILDING STORY 2 THERMALZONE VAV TERMINAL,AIRTERMINAL:SINGLEDUCT:VAV:REHEAT,BUILDING STORY 2 THERMALZONE VAV TERMINAL,BUILDING STORY 2 THERMALZONE VAV TERMINAL INLET AIR NODE,BUILDING STORY 2 THERMALZONE VAV TERMINAL OUTLET AIR NODE,Air Nodes
 Component Set,117,ZONEHVAC:AIRDISTRIBUTIONUNIT,ADU BUILDING STORY 3 THERMALZONE VAV TERMINAL,AIRTERMINAL:SINGLEDUCT:VAV:REHEAT,BUILDING STORY 3 THERMALZONE VAV TERMINAL,BUILDING STORY 3 THERMALZONE VAV TERMINAL INLET AIR NODE,BUILDING STORY 3 THERMALZONE VAV TERMINAL OUTLET AIR NODE,Air Nodes
 Component Set,118,ZONEHVAC:AIRDISTRIBUTIONUNIT,ADU BUILDING STORY 4 THERMALZONE VAV TERMINAL,AIRTERMINAL:SINGLEDUCT:VAV:REHEAT,BUILDING STORY 4 THERMALZONE VAV TERMINAL,BUILDING STORY 4 THERMALZONE VAV TERMINAL INLET AIR NODE,BUILDING STORY 4 THERMALZONE VAV TERMINAL OUTLET AIR NODE,Air Nodes
 Component Set,119,ZONEHVAC:AIRDISTRIBUTIONUNIT,ADU BUILDING STORY 5 THERMALZONE VAV TERMINAL,AIRTERMINAL:SINGLEDUCT:VAV:REHEAT,BUILDING STORY 5 THERMALZONE VAV TERMINAL,BUILDING STORY 5 THERMALZONE VAV TERMINAL INLET AIR NODE,BUILDING STORY 5 THERMALZONE VAV TERMINAL OUTLET AIR NODE,Air Nodes
 Component Set,120,ZONEHVAC:AIRDISTRIBUTIONUNIT,ADU BUILDING STORY 6 THERMALZONE VAV TERMINAL,AIRTERMINAL:SINGLEDUCT:VAV:REHEAT,BUILDING STORY 6 THERMALZONE VAV TERMINAL,BUILDING STORY 6 THERMALZONE VAV TERMINAL INLET AIR NODE,BUILDING STORY 6 THERMALZONE VAV TERMINAL OUTLET AIR NODE,Air Nodes
 Component Set,121,ZONEHVAC:AIRDISTRIBUTIONUNIT,ADU BUILDING STORY 7 THERMALZONE VAV TERMINAL,AIRTERMINAL:SINGLEDUCT:VAV:REHEAT,BUILDING STORY 7 THERMALZONE VAV TERMINAL,BUILDING STORY 7 THERMALZONE VAV TERMINAL INLET AIR NODE,BUILDING STORY 7 THERMALZONE VAV TERMINAL OUTLET AIR NODE,Air Nodes
[...]
 Non-Parent Node Connection,1 ZONE VAV 3 CLG COIL OUTLET AIR NODE,COIL:COOLING:WATER,1 ZONE VAV 3 CLG COIL,Outlet,1
 Non-Parent Node Connection,1 ZONE VAV 4 CLG COIL INLET WATER NODE,COIL:COOLING:WATER,1 ZONE VAV 4 CLG COIL,Inlet,2
 Non-Parent Node Connection,1 ZONE VAV 4 CLG COIL OUTLET WATER NODE,COIL:COOLING:WATER,1 ZONE VAV 4 CLG COIL,Outlet,2
 Non-Parent Node Connection,1 ZONE VAV 4 MIXED AIR NODE,COIL:COOLING:WATER,1 ZONE VAV 4 CLG COIL,Inlet,1
 Non-Parent Node Connection,1 ZONE VAV 4 CLG COIL OUTLET AIR NODE,COIL:COOLING:WATER,1 ZONE VAV 4 CLG COIL,Outlet,1
 Non-Parent Node Connection,1 ZONE VAV 5 CLG COIL INLET WATER NODE,COIL:COOLING:WATER,1 ZONE VAV 5 CLG COIL,Inlet,2
 Non-Parent Node Connection,1 ZONE VAV 5 CLG COIL OUTLET WATER NODE,COIL:COOLING:WATER,1 ZONE VAV 5 CLG COIL,Outlet,2
 Non-Parent Node Connection,1 ZONE VAV 5 MIXED AIR NODE,COIL:COOLING:WATER,1 ZONE VAV 5 CLG COIL,Inlet,1
 Non-Parent Node Connection,1 ZONE VAV 5 CLG COIL OUTLET AIR NODE,COIL:COOLING:WATER,1 ZONE VAV 5 CLG COIL,Outlet,1
 Non-Parent Node Connection,1 ZONE VAV 6 CLG COIL INLET WATER NODE,COIL:COOLING:WATER,1 ZONE VAV 6 CLG COIL,Inlet,2
 Non-Parent Node Connection,1 ZONE VAV 6 CLG COIL OUTLET WATER NODE,COIL:COOLING:WATER,1 ZONE VAV 6 CLG COIL,Outlet,2
 Non-Parent Node Connection,1 ZONE VAV 6 MIXED AIR NODE,COIL:COOLING:WATER,1 ZONE VAV 6 CLG COIL,Inlet,1
 Non-Parent Node Connection,1 ZONE VAV 6 CLG COIL OUTLET AIR NODE,COIL:COOLING:WATER,1 ZONE VAV 6 CLG COIL,Outlet,1
 Non-Parent Node Connection,1 ZONE VAV 7 CLG COIL INLET WATER NODE,COIL:COOLING:WATER,1 ZONE VAV 7 CLG COIL,Inlet,2
 Non-Parent Node Connection,1 ZONE VAV 7 CLG COIL OUTLET WATER NODE,COIL:COOLING:WATER,1 ZONE VAV 7 CLG COIL,Outlet,2
 Non-Parent Node Connection,1 ZONE VAV 7 MIXED AIR NODE,COIL:COOLING:WATER,1 ZONE VAV 7 CLG COIL,Inlet,1
 Non-Parent Node Connection,1 ZONE VAV 7 CLG COIL OUTLET AIR NODE,COIL:COOLING:WATER,1 ZONE VAV 7 CLG COIL,Outlet,1
 Non-Parent Node Connection,1 ZONE VAV 8 CLG COIL INLET WATER NODE,COIL:COOLING:WATER,1 ZONE VAV 8 CLG COIL,Inlet,2
 Non-Parent Node Connection,1 ZONE VAV 8 CLG COIL OUTLET WATER NODE,COIL:COOLING:WATER,1 ZONE VAV 8 CLG COIL,Outlet,2
 Non-Parent Node Connection,1 ZONE VAV 8 MIXED AIR NODE,COIL:COOLING:WATER,1 ZONE VAV 8 CLG COIL,Inlet,1
 Non-Parent Node Connection,1 ZONE VAV 8 CLG COIL OUTLET AIR NODE,COIL:COOLING:WATER,1 ZONE VAV 8 CLG COIL,Outlet,1
 Non-Parent Node Connection,1 ZONE VAV 9 CLG COIL INLET WATER NODE,COIL:COOLING:WATER,1 ZONE VAV 9 CLG COIL,Inlet,2
 Non-Parent Node Connection,1 ZONE VAV 9 CLG COIL OUTLET WATER NODE,COIL:COOLING:WATER,1 ZONE VAV 9 CLG COIL,Outlet,2
 Non-Parent Node Connection,1 ZONE VAV 9 MIXED AIR NODE,COIL:COOLING:WATER,1 ZONE VAV 9 CLG COIL,Inlet,1
 Non-Parent Node Connection,1 ZONE VAV 9 CLG COIL OUTLET AIR NODE,COIL:COOLING:WATER,1 ZONE VAV 9 CLG COIL,Outlet,1
 Non-Parent Node Connection,BUILDING STORY 10 THERMALZONE VAV TERMINAL DAMPER OUTLET,AIRTERMINAL:SINGLEDUCT:VAV:REHEAT,BUILDING STORY 10 THERMALZONE VAV TERMINAL,Outlet,1
 Non-Parent Node Connection,BUILDING STORY 10 THERMALZONE VAV TERMINAL INLET AIR NODE,AIRTERMINAL:SINGLEDUCT:VAV:REHEAT,BUILDING STORY 10 THERMALZONE VAV TERMINAL,Inlet,1
 Non-Parent Node Connection,BUILDING STORY 2 THERMALZONE VAV TERMINAL DAMPER OUTLET,AIRTERMINAL:SINGLEDUCT:VAV:REHEAT,BUILDING STORY 2 THERMALZONE VAV TERMINAL,Outlet,1
 Non-Parent Node Connection,BUILDING STORY 2 THERMALZONE VAV TERMINAL INLET AIR NODE,AIRTERMINAL:SINGLEDUCT:VAV:REHEAT,BUILDING STORY 2 THERMALZONE VAV TERMINAL,Inlet,1
 Non-Parent Node Connection,BUILDING STORY 3 THERMALZONE VAV TERMINAL DAMPER OUTLET,AIRTERMINAL:SINGLEDUCT:VAV:REHEAT,BUILDING STORY 3 THERMALZONE VAV TERMINAL,Outlet,1
 Non-Parent Node Connection,BUILDING STORY 3 THERMALZONE VAV TERMINAL INLET AIR NODE,AIRTERMINAL:SINGLEDUCT:VAV:REHEAT,BUILDING STORY 3 THERMALZONE VAV TERMINAL,Inlet,1
 Non-Parent Node Connection,BUILDING STORY 4 THERMALZONE VAV TERMINAL DAMPER OUTLET,AIRTERMINAL:SINGLEDUCT:VAV:REHEAT,BUILDING STORY 4 THERMALZONE VAV TERMINAL,Outlet,1
 Non-Parent Node Connection,BUILDING STORY 4 THERMALZONE VAV TERMINAL INLET AIR NODE,AIRTERMINAL:SINGLEDUCT:VAV:REHEAT,BUILDING STORY 4 THERMALZONE VAV TERMINAL,Inlet,1
 Non-Parent Node Connection,BUILDING STORY 5 THERMALZONE VAV TERMINAL DAMPER OUTLET,AIRTERMINAL:SINGLEDUCT:VAV:REHEAT,BUILDING STORY 5 THERMALZONE VAV TERMINAL,Outlet,1
 Non-Parent Node Connection,BUILDING STORY 5 THERMALZONE VAV TERMINAL INLET AIR NODE,AIRTERMINAL:SINGLEDUCT:VAV:REHEAT,BUILDING STORY 5 THERMALZONE VAV TERMINAL,Inlet,1
 Non-Parent Node Connection,BUILDING STORY 6 THERMALZONE VAV TERMINAL DAMPER OUTLET,AIRTERMINAL:SINGLEDUCT:VAV:REHEAT,BUILDING STORY 6 THERMALZONE VAV TERMINAL,Outlet,1
 Non-Parent Node Connection,BUILDING STORY 6 THERMALZONE VAV TERMINAL INLET AIR NODE,AIRTERMINAL:SINGLEDUCT:VAV:REHEAT,BUILDING STORY 6 THERMALZONE VAV TERMINAL,Inlet,1
 Non-Parent Node Connection,BUILDING STORY 7 THERMALZONE VAV TERMINAL DAMPER OUTLET,AIRTERMINAL:SINGLEDUCT:VAV:REHEAT,BUILDING STORY 7 THERMALZONE VAV TERMINAL,Outlet,1
 Non-Parent Node Connection,BUILDING STORY 7 THERMALZONE VAV TERMINAL INLET AIR NODE,AIRTERMINAL:SINGLEDUCT:VAV:REHEAT,BUILDING STORY 7 THERMALZONE VAV TERMINAL,Inlet,1
 Non-Parent Node Connection,BUILDING STORY 8 THERMALZONE VAV TERMINAL DAMPER OUTLET,AIRTERMINAL:SINGLEDUCT:VAV:REHEAT,BUILDING STORY 8 THERMALZONE VAV TERMINAL,Outlet,1
 Non-Parent Node Connection,BUILDING STORY 8 THERMALZONE VAV TERMINAL INLET AIR NODE,AIRTERMINAL:SINGLEDUCT:VAV:REHEAT,BUILDING STORY 8 THERMALZONE VAV TERMINAL,Inlet,1
 Non-Parent Node Connection,BUILDING STORY 9 THERMALZONE VAV TERMINAL DAMPER OUTLET,AIRTERMINAL:SINGLEDUCT:VAV:REHEAT,BUILDING STORY 9 THERMALZONE VAV TERMINAL,Outlet,1
 Non-Parent Node Connection,BUILDING STORY 9 THERMALZONE VAV TERMINAL INLET AIR NODE,AIRTERMINAL:SINGLEDUCT:VAV:REHEAT,BUILDING STORY 9 THERMALZONE VAV TERMINAL,Inlet,1
 Non-Parent Node Connection,1 ZONE VAV CLG COIL OUTLET AIR NODE,CONTROLLER:WATERCOIL,1 ZONE VAV CLG COIL CONTROLLER,Sensor,1
 Non-Parent Node Connection,1 ZONE VAV CLG COIL INLET WATER NODE,CONTROLLER:WATERCOIL,1 ZONE VAV CLG COIL CONTROLLER,Actuator,1
 Non-Parent Node Connection,1 ZONE VAV MAIN HTG COIL OUTLET AIR NODE,CONTROLLER:WATERCOIL,1 ZONE VAV MAIN HTG COIL CONTROLLER,Sensor,1
 Non-Parent Node Connection,1 ZONE VAV MAIN HTG COIL INLET WATER NODE,CONTROLLER:WATERCOIL,1 ZONE VAV MAIN HTG COIL CONTROLLER,Actuator,1
 Non-Parent Node Connection,1 ZONE VAV 1 CLG COIL OUTLET AIR NODE,CONTROLLER:WATERCOIL,1 ZONE VAV 1 CLG COIL CONTROLLER,Sensor,1
 Non-Parent Node Connection,1 ZONE VAV 1 CLG COIL INLET WATER NODE,CONTROLLER:WATERCOIL,1 ZONE VAV 1 CLG COIL CONTROLLER,Actuator,1
 Non-Parent Node Connection,1 ZONE VAV 1 MAIN HTG COIL OUTLET AIR NODE,CONTROLLER:WATERCOIL,1 ZONE VAV 1 MAIN HTG COIL CONTROLLER,Sensor,1
 Non-Parent Node Connection,1 ZONE VAV 1 MAIN HTG COIL INLET WATER NODE,CONTROLLER:WATERCOIL,1 ZONE VAV 1 MAIN HTG COIL CONTROLLER,Actuator,1
 Non-Parent Node Connection,1 ZONE VAV 2 CLG COIL OUTLET AIR NODE,CONTROLLER:WATERCOIL,1 ZONE VAV 2 CLG COIL CONTROLLER,Sensor,1
 Non-Parent Node Connection,1 ZONE VAV 2 CLG COIL INLET WATER NODE,CONTROLLER:WATERCOIL,1 ZONE VAV 2 CLG COIL CONTROLLER,Actuator,1
 Non-Parent Node Connection,1 ZONE VAV 2 MAIN HTG COIL OUTLET AIR NODE,CONTROLLER:WATERCOIL,1 ZONE VAV 2 MAIN HTG COIL CONTROLLER,Sensor,1
 Non-Parent Node Connection,1 ZONE VAV 2 MAIN HTG COIL INLET WATER NODE,CONTROLLER:WATERCOIL,1 ZONE VAV 2 MAIN HTG COIL CONTROLLER,Actuator,1
 Non-Parent Node Connection,1 ZONE VAV 3 CLG COIL OUTLET AIR NODE,CONTROLLER:WATERCOIL,1 ZONE VAV 3 CLG COIL CONTROLLER,Sensor,1
 Non-Parent Node Connection,1 ZONE VAV 3 CLG COIL INLET WATER NODE,CONTROLLER:WATERCOIL,1 ZONE VAV 3 CLG COIL CONTROLLER,Actuator,1
 Non-Parent Node Connection,1 ZONE VAV 3 MAIN HTG COIL OUTLET AIR NODE,CONTROLLER:WATERCOIL,1 ZONE VAV 3 MAIN HTG COIL CONTROLLER,Sensor,1
 Non-Parent Node Connection,1 ZONE VAV 3 MAIN HTG COIL INLET WATER NODE,CONTROLLER:WATERCOIL,1 ZONE VAV 3 MAIN HTG COIL CONTROLLER,Actuator,1
 Non-Parent Node Connection,1 ZONE VAV 4 CLG COIL OUTLET AIR NODE,CONTROLLER:WATERCOIL,1 ZONE VAV 4 CLG COIL CONTROLLER,Sensor,1
 Non-Parent Node Connection,1 ZONE VAV 4 CLG COIL INLET WATER NODE,CONTROLLER:WATERCOIL,1 ZONE VAV 4 CLG COIL CONTROLLER,Actuator,1
 Non-Parent Node Connection,1 ZONE VAV 4 MAIN HTG COIL OUTLET AIR NODE,CONTROLLER:WATERCOIL,1 ZONE VAV 4 MAIN HTG COIL CONTROLLER,Sensor,1
 Non-Parent Node Connection,1 ZONE VAV 4 MAIN HTG COIL INLET WATER NODE,CONTROLLER:WATERCOIL,1 ZONE VAV 4 MAIN HTG COIL CONTROLLER,Actuator,1
 Non-Parent Node Connection,1 ZONE VAV 5 CLG COIL OUTLET AIR NODE,CONTROLLER:WATERCOIL,1 ZONE VAV 5 CLG COIL CONTROLLER,Sensor,1
 Non-Parent Node Connection,1 ZONE VAV 5 CLG COIL INLET WATER NODE,CONTROLLER:WATERCOIL,1 ZONE VAV 5 CLG COIL CONTROLLER,Actuator,1
 Non-Parent Node Connection,1 ZONE VAV 5 MAIN HTG COIL OUTLET AIR NODE,CONTROLLER:WATERCOIL,1 ZONE VAV 5 MAIN HTG COIL CONTROLLER,Sensor,1
 Non-Parent Node Connection,1 ZONE VAV 5 MAIN HTG COIL INLET WATER NODE,CONTROLLER:WATERCOIL,1 ZONE VAV 5 MAIN HTG COIL CONTROLLER,Actuator,1
 Non-Parent Node Connection,1 ZONE VAV 6 CLG COIL OUTLET AIR NODE,CONTROLLER:WATERCOIL,1 ZONE VAV 6 CLG COIL CONTROLLER,Sensor,1
 Non-Parent Node Connection,1 ZONE VAV 6 CLG COIL INLET WATER NODE,CONTROLLER:WATERCOIL,1 ZONE VAV 6 CLG COIL CONTROLLER,Actuator,1
 Non-Parent Node Connection,1 ZONE VAV 6 MAIN HTG COIL OUTLET AIR NODE,CONTROLLER:WATERCOIL,1 ZONE VAV 6 MAIN HTG COIL CONTROLLER,Sensor,1
 Non-Parent Node Connection,1 ZONE VAV 6 MAIN HTG COIL INLET WATER NODE,CONTROLLER:WATERCOIL,1 ZONE VAV 6 MAIN HTG COIL CONTROLLER,Actuator,1
 Non-Parent Node Connection,1 ZONE VAV 7 CLG COIL OUTLET AIR NODE,CONTROLLER:WATERCOIL,1 ZONE VAV 7 CLG COIL CONTROLLER,Sensor,1
 Non-Parent Node Connection,1 ZONE VAV 7 CLG COIL INLET WATER NODE,CONTROLLER:WATERCOIL,1 ZONE VAV 7 CLG COIL CONTROLLER,Actuator,1
 Non-Parent Node Connection,1 ZONE VAV 7 MAIN HTG COIL OUTLET AIR NODE,CONTROLLER:WATERCOIL,1 ZONE VAV 7 MAIN HTG COIL CONTROLLER,Sensor,1
 Non-Parent Node Connection,1 ZONE VAV 7 MAIN HTG COIL INLET WATER NODE,CONTROLLER:WATERCOIL,1 ZONE VAV 7 MAIN HTG COIL CONTROLLER,Actuator,1
 Non-Parent Node Connection,1 ZONE VAV 8 CLG COIL OUTLET AIR NODE,CONTROLLER:WATERCOIL,1 ZONE VAV 8 CLG COIL CONTROLLER,Sensor,1
 Non-Parent Node Connection,1 ZONE VAV 8 CLG COIL INLET WATER NODE,CONTROLLER:WATERCOIL,1 ZONE VAV 8 CLG COIL CONTROLLER,Actuator,1
 Non-Parent Node Connection,1 ZONE VAV 8 MAIN HTG COIL OUTLET AIR NODE,CONTROLLER:WATERCOIL,1 ZONE VAV 8 MAIN HTG COIL CONTROLLER,Sensor,1
 Non-Parent Node Connection,1 ZONE VAV 8 MAIN HTG COIL INLET WATER NODE,CONTROLLER:WATERCOIL,1 ZONE VAV 8 MAIN HTG COIL CONTROLLER,Actuator,1
 Non-Parent Node Connection,1 ZONE VAV 9 CLG COIL OUTLET AIR NODE,CONTROLLER:WATERCOIL,1 ZONE VAV 9 CLG COIL CONTROLLER,Sensor,1
 Non-Parent Node Connection,1 ZONE VAV 9 CLG COIL INLET WATER NODE,CONTROLLER:WATERCOIL,1 ZONE VAV 9 CLG COIL CONTROLLER,Actuator,1
 Non-Parent Node Connection,1 ZONE VAV 9 MAIN HTG COIL OUTLET AIR NODE,CONTROLLER:WATERCOIL,1 ZONE VAV 9 MAIN HTG COIL CONTROLLER,Sensor,1
 Non-Parent Node Connection,1 ZONE VAV 9 MAIN HTG COIL INLET WATER NODE,CONTROLLER:WATERCOIL,1 ZONE VAV 9 MAIN HTG COIL CONTROLLER,Actuator,1
 Non-Parent Node Connection,1 ZONE VAV DEMAND OUTLET NODE,AIRLOOPHVAC:ZONEMIXER,AIR LOOP HVAC ZONE MIXER 1,Outlet,1
 Non-Parent Node Connection,BUILDING STORY 1 THERMALZONE RETURN AIR NODE,AIRLOOPHVAC:ZONEMIXER,AIR LOOP HVAC ZONE MIXER 1,Inlet,1
 Non-Parent Node Connection,1 ZONE VAV 1 DEMAND OUTLET NODE,AIRLOOPHVAC:ZONEMIXER,AIR LOOP HVAC ZONE MIXER 2,Outlet,1
 Non-Parent Node Connection,BUILDING STORY 10 THERMALZONE RETURN AIR NODE,AIRLOOPHVAC:ZONEMIXER,AIR LOOP HVAC ZONE MIXER 2,Inlet,1
 Non-Parent Node Connection,1 ZONE VAV 2 DEMAND OUTLET NODE,AIRLOOPHVAC:ZONEMIXER,AIR LOOP HVAC ZONE MIXER 3,Outlet,1
 Non-Parent Node Connection,BUILDING STORY 2 THERMALZONE RETURN AIR NODE,AIRLOOPHVAC:ZONEMIXER,AIR LOOP HVAC ZONE MIXER 3,Inlet,1
 Non-Parent Node Connection,1 ZONE VAV 3 DEMAND OUTLET NODE,AIRLOOPHVAC:ZONEMIXER,AIR LOOP HVAC ZONE MIXER 4,Outlet,1
 Non-Parent Node Connection,BUILDING STORY 3 THERMALZONE RETURN AIR NODE,AIRLOOPHVAC:ZONEMIXER,AIR LOOP HVAC ZONE MIXER 4,Inlet,1
 Non-Parent Node Connection,1 ZONE VAV 4 DEMAND OUTLET NODE,AIRLOOPHVAC:ZONEMIXER,AIR LOOP HVAC ZONE MIXER 5,Outlet,1
 Non-Parent Node Connection,BUILDING STORY 4 THERMALZONE RETURN AIR NODE,AIRLOOPHVAC:ZONEMIXER,AIR LOOP HVAC ZONE MIXER 5,Inlet,1
 Non-Parent Node Connection,1 ZONE VAV 5 DEMAND OUTLET NODE,AIRLOOPHVAC:ZONEMIXER,AIR LOOP HVAC ZONE MIXER 6,Outlet,1
 Non-Parent Node Connection,BUILDING STORY 5 THERMALZONE RETURN AIR NODE,AIRLOOPHVAC:ZONEMIXER,AIR LOOP HVAC ZONE MIXER 6,Inlet,1
 Non-Parent Node Connection,1 ZONE VAV 6 DEMAND OUTLET NODE,AIRLOOPHVAC:ZONEMIXER,AIR LOOP HVAC ZONE MIXER 7,Outlet,1
 Non-Parent Node Connection,BUILDING STORY 6 THERMALZONE RETURN AIR NODE,AIRLOOPHVAC:ZONEMIXER,AIR LOOP HVAC ZONE MIXER 7,Inlet,1
 Non-Parent Node Connection,1 ZONE VAV 7 DEMAND OUTLET NODE,AIRLOOPHVAC:ZONEMIXER,AIR LOOP HVAC ZONE MIXER 8,Outlet,1
 Non-Parent Node Connection,BUILDING STORY 7 THERMALZONE RETURN AIR NODE,AIRLOOPHVAC:ZONEMIXER,AIR LOOP HVAC ZONE MIXER 8,Inlet,1
 Non-Parent Node Connection,1 ZONE VAV 8 DEMAND OUTLET NODE,AIRLOOPHVAC:ZONEMIXER,AIR LOOP HVAC ZONE MIXER 9,Outlet,1
 Non-Parent Node Connection,BUILDING STORY 8 THERMALZONE RETURN AIR NODE,AIRLOOPHVAC:ZONEMIXER,AIR LOOP HVAC ZONE MIXER 9,Inlet,1
 Non-Parent Node Connection,1 ZONE VAV 9 DEMAND OUTLET NODE,AIRLOOPHVAC:ZONEMIXER,AIR LOOP HVAC ZONE MIXER 10,Outlet,1
 Non-Parent Node Connection,BUILDING STORY 9 THERMALZONE RETURN AIR NODE,AIRLOOPHVAC:ZONEMIXER,AIR LOOP HVAC ZONE MIXER 10,Inlet,1
 Non-Parent Node Connection,1 ZONE VAV MIXED AIR NODE,OUTDOORAIR:MIXER,1 ZONE VAV OA SYSTEM OUTDOOR AIR MIXER,Outlet,1
 Non-Parent Node Connection,1 ZONE VAV OUTDOOR AIR NODE,OUTDOORAIR:MIXER,1 ZONE VAV OA SYSTEM OUTDOOR AIR MIXER,Inlet,1
 Non-Parent Node Connection,1 ZONE VAV RELIEF AIR NODE,OUTDOORAIR:MIXER,1 ZONE VAV OA SYSTEM OUTDOOR AIR MIXER,ReliefAir,1
 Non-Parent Node Connection,1 ZONE VAV SUPPLY INLET NODE,OUTDOORAIR:MIXER,1 ZONE VAV OA SYSTEM OUTDOOR AIR MIXER,Inlet,1
 Non-Parent Node Connection,1 ZONE VAV 1 MIXED AIR NODE,OUTDOORAIR:MIXER,1 ZONE VAV 1 OA SYSTEM OUTDOOR AIR MIXER,Outlet,1
 Non-Parent Node Connection,1 ZONE VAV 1 OUTDOOR AIR NODE,OUTDOORAIR:MIXER,1 ZONE VAV 1 OA SYSTEM OUTDOOR AIR MIXER,Inlet,1
 Non-Parent Node Connection,1 ZONE VAV 1 RELIEF AIR NODE,OUTDOORAIR:MIXER,1 ZONE VAV 1 OA SYSTEM OUTDOOR AIR MIXER,ReliefAir,1
 Non-Parent Node Connection,1 ZONE VAV 1 SUPPLY INLET NODE,OUTDOORAIR:MIXER,1 ZONE VAV 1 OA SYSTEM OUTDOOR AIR MIXER,Inlet,1
 Non-Parent Node Connection,1 ZONE VAV 2 MIXED AIR NODE,OUTDOORAIR:MIXER,1 ZONE VAV 2 OA SYSTEM OUTDOOR AIR MIXER,Outlet,1
 Non-Parent Node Connection,1 ZONE VAV 2 OUTDOOR AIR NODE,OUTDOORAIR:MIXER,1 ZONE VAV 2 OA SYSTEM OUTDOOR AIR MIXER,Inlet,1
 Non-Parent Node Connection,1 ZONE VAV 2 RELIEF AIR NODE,OUTDOORAIR:MIXER,1 ZONE VAV 2 OA SYSTEM OUTDOOR AIR MIXER,ReliefAir,1
 Non-Parent Node Connection,1 ZONE VAV 2 SUPPLY INLET NODE,OUTDOORAIR:MIXER,1 ZONE VAV 2 OA SYSTEM OUTDOOR AIR MIXER,Inlet,1
 Non-Parent Node Connection,1 ZONE VAV 3 MIXED AIR NODE,OUTDOORAIR:MIXER,1 ZONE VAV 3 OA SYSTEM OUTDOOR AIR MIXER,Outlet,1
 Non-Parent Node Connection,1 ZONE VAV 3 OUTDOOR AIR NODE,OUTDOORAIR:MIXER,1 ZONE VAV 3 OA SYSTEM OUTDOOR AIR MIXER,Inlet,1
 Non-Parent Node Connection,1 ZONE VAV 3 RELIEF AIR NODE,OUTDOORAIR:MIXER,1 ZONE VAV 3 OA SYSTEM OUTDOOR AIR MIXER,ReliefAir,1
 Non-Parent Node Connection,1 ZONE VAV 3 SUPPLY INLET NODE,OUTDOORAIR:MIXER,1 ZONE VAV 3 OA SYSTEM OUTDOOR AIR MIXER,Inlet,1
 Non-Parent Node Connection,1 ZONE VAV 4 MIXED AIR NODE,OUTDOORAIR:MIXER,1 ZONE VAV 4 OA SYSTEM OUTDOOR AIR MIXER,Outlet,1
 Non-Parent Node Connection,1 ZONE VAV 4 OUTDOOR AIR NODE,OUTDOORAIR:MIXER,1 ZONE VAV 4 OA SYSTEM OUTDOOR AIR MIXER,Inlet,1
 Non-Parent Node Connection,1 ZONE VAV 4 RELIEF AIR NODE,OUTDOORAIR:MIXER,1 ZONE VAV 4 OA SYSTEM OUTDOOR AIR MIXER,ReliefAir,1
 Non-Parent Node Connection,1 ZONE VAV 4 SUPPLY INLET NODE,OUTDOORAIR:MIXER,1 ZONE VAV 4 OA SYSTEM OUTDOOR AIR MIXER,Inlet,1
 Non-Parent Node Connection,1 ZONE VAV 5 MIXED AIR NODE,OUTDOORAIR:MIXER,1 ZONE VAV 5 OA SYSTEM OUTDOOR AIR MIXER,Outlet,1
 Non-Parent Node Connection,1 ZONE VAV 5 OUTDOOR AIR NODE,OUTDOORAIR:MIXER,1 ZONE VAV 5 OA SYSTEM OUTDOOR AIR MIXER,Inlet,1
 Non-Parent Node Connection,1 ZONE VAV 5 RELIEF AIR NODE,OUTDOORAIR:MIXER,1 ZONE VAV 5 OA SYSTEM OUTDOOR AIR MIXER,ReliefAir,1
 Non-Parent Node Connection,1 ZONE VAV 5 SUPPLY INLET NODE,OUTDOORAIR:MIXER,1 ZONE VAV 5 OA SYSTEM OUTDOOR AIR MIXER,Inlet,1
 Non-Parent Node Connection,1 ZONE VAV 6 MIXED AIR NODE,OUTDOORAIR:MIXER,1 ZONE VAV 6 OA SYSTEM OUTDOOR AIR MIXER,Outlet,1
 Non-Parent Node Connection,1 ZONE VAV 6 OUTDOOR AIR NODE,OUTDOORAIR:MIXER,1 ZONE VAV 6 OA SYSTEM OUTDOOR AIR MIXER,Inlet,1
 Non-Parent Node Connection,1 ZONE VAV 6 RELIEF AIR NODE,OUTDOORAIR:MIXER,1 ZONE VAV 6 OA SYSTEM OUTDOOR AIR MIXER,ReliefAir,1
 Non-Parent Node Connection,1 ZONE VAV 6 SUPPLY INLET NODE,OUTDOORAIR:MIXER,1 ZONE VAV 6 OA SYSTEM OUTDOOR AIR MIXER,Inlet,1
 Non-Parent Node Connection,1 ZONE VAV 7 MIXED AIR NODE,OUTDOORAIR:MIXER,1 ZONE VAV 7 OA SYSTEM OUTDOOR AIR MIXER,Outlet,1
 Non-Parent Node Connection,1 ZONE VAV 7 OUTDOOR AIR NODE,OUTDOORAIR:MIXER,1 ZONE VAV 7 OA SYSTEM OUTDOOR AIR MIXER,Inlet,1
 Non-Parent Node Connection,1 ZONE VAV 7 RELIEF AIR NODE,OUTDOORAIR:MIXER,1 ZONE VAV 7 OA SYSTEM OUTDOOR AIR MIXER,ReliefAir,1
 Non-Parent Node Connection,1 ZONE VAV 7 SUPPLY INLET NODE,OUTDOORAIR:MIXER,1 ZONE VAV 7 OA SYSTEM OUTDOOR AIR MIXER,Inlet,1
 Non-Parent Node Connection,1 ZONE VAV 8 MIXED AIR NODE,OUTDOORAIR:MIXER,1 ZONE VAV 8 OA SYSTEM OUTDOOR AIR MIXER,Outlet,1
 Non-Parent Node Connection,1 ZONE VAV 8 OUTDOOR AIR NODE,OUTDOORAIR:MIXER,1 ZONE VAV 8 OA SYSTEM OUTDOOR AIR MIXER,Inlet,1
 Non-Parent Node Connection,1 ZONE VAV 8 RELIEF AIR NODE,OUTDOORAIR:MIXER,1 ZONE VAV 8 OA SYSTEM OUTDOOR AIR MIXER,ReliefAir,1
 Non-Parent Node Connection,1 ZONE VAV 8 SUPPLY INLET NODE,OUTDOORAIR:MIXER,1 ZONE VAV 8 OA SYSTEM OUTDOOR AIR MIXER,Inlet,1
 Non-Parent Node Connection,1 ZONE VAV 9 MIXED AIR NODE,OUTDOORAIR:MIXER,1 ZONE VAV 9 OA SYSTEM OUTDOOR AIR MIXER,Outlet,1
 Non-Parent Node Connection,1 ZONE VAV 9 OUTDOOR AIR NODE,OUTDOORAIR:MIXER,1 ZONE VAV 9 OA SYSTEM OUTDOOR AIR MIXER,Inlet,1
 Non-Parent Node Connection,1 ZONE VAV 9 RELIEF AIR NODE,OUTDOORAIR:MIXER,1 ZONE VAV 9 OA SYSTEM OUTDOOR AIR MIXER,ReliefAir,1
 Non-Parent Node Connection,1 ZONE VAV 9 SUPPLY INLET NODE,OUTDOORAIR:MIXER,1 ZONE VAV 9 OA SYSTEM OUTDOOR AIR MIXER,Inlet,1
 Non-Parent Node Connection,1 ZONE VAV MAIN HTG COIL OUTLET AIR NODE,FAN:VARIABLEVOLUME,1 ZONE VAV FAN,Inlet,1
 Non-Parent Node Connection,1 ZONE VAV SUPPLY OUTLET NODE,FAN:VARIABLEVOLUME,1 ZONE VAV FAN,Outlet,1
 Non-Parent Node Connection,1 ZONE VAV 1 MAIN HTG COIL OUTLET AIR NODE,FAN:VARIABLEVOLUME,1 ZONE VAV 1 FAN,Inlet,1
 Non-Parent Node Connection,1 ZONE VAV 1 SUPPLY OUTLET NODE,FAN:VARIABLEVOLUME,1 ZONE VAV 1 FAN,Outlet,1
 Non-Parent Node Connection,1 ZONE VAV 2 MAIN HTG COIL OUTLET AIR NODE,FAN:VARIABLEVOLUME,1 ZONE VAV 2 FAN,Inlet,1
 Non-Parent Node Connection,1 ZONE VAV 2 SUPPLY OUTLET NODE,FAN:VARIABLEVOLUME,1 ZONE VAV 2 FAN,Outlet,1
 Non-Parent Node Connection,1 ZONE VAV 3 MAIN HTG COIL OUTLET AIR NODE,FAN:VARIABLEVOLUME,1 ZONE VAV 3 FAN,Inlet,1
 Non-Parent Node Connection,1 ZONE VAV 3 SUPPLY OUTLET NODE,FAN:VARIABLEVOLUME,1 ZONE VAV 3 FAN,Outlet,1
 Non-Parent Node Connection,1 ZONE VAV 4 MAIN HTG COIL OUTLET AIR NODE,FAN:VARIABLEVOLUME,1 ZONE VAV 4 FAN,Inlet,1
 Non-Parent Node Connection,1 ZONE VAV 4 SUPPLY OUTLET NODE,FAN:VARIABLEVOLUME,1 ZONE VAV 4 FAN,Outlet,1
 Non-Parent Node Connection,1 ZONE VAV 5 MAIN HTG COIL OUTLET AIR NODE,FAN:VARIABLEVOLUME,1 ZONE VAV 5 FAN,Inlet,1
