Program Version,EnergyPlus, Version 9.4.0-998c4b761e, YMD=2021.04.05 22:23,
   ** Warning ** Timestep: Requested number (1) is less than the suggested minimum of 4.
   **   ~~~   ** Please see entry for Timestep in Input/Output Reference for discussion of considerations.
   ************* Beginning Zone Sizing Calculations
   ** Warning ** ProcessScheduleInput: Schedule:Day:Interval="177 SPACE(S) OCC SCH DEFAULT", Blank Schedule Type Limits Name input -- will not be validated.
   ** Warning ** ProcessScheduleInput: Schedule:Day:Interval="177 SPACE(S) OCC SCH SATURDAY", Blank Schedule Type Limits Name input -- will not be validated.
   ** Warning ** ProcessScheduleInput: Schedule:Day:Interval="177 SPACE(S) OCC SCH SUMMER DESIGN DAY", Blank Schedule Type Limits Name input -- will not be validated.
   ** Warning ** ProcessScheduleInput: Schedule:Day:Interval="177 SPACE(S) OCC SCH SUNDAY", Blank Schedule Type Limits Name input -- will not be validated.
   ** Warning ** ProcessScheduleInput: Schedule:Day:Interval="177 SPACE(S) OCC SCH WINTER DESIGN DAY", Blank Schedule Type Limits Name input -- will not be validated.
   ** Warning ** ProcessScheduleInput: Schedule:Day:Interval="ECONOMIZER MAX OA FRACTION 70 PCT DEFAULT", Blank Schedule Type Limits Name input -- will not be validated.
   ** Warning ** ProcessScheduleInput: Schedule:Day:Interval="SCHEDULE DAY 1", Blank Schedule Type Limits Name input -- will not be validated.
   ** Warning ** ProcessScheduleInput: Schedule:Day:Interval="SCHEDULE DAY 10", Blank Schedule Type Limits Name input -- will not be validated.
   ** Warning ** ProcessScheduleInput: Schedule:Day:Interval="SCHEDULE DAY 11", Blank Schedule Type Limits Name input -- will not be validated.
   ** Warning ** ProcessScheduleInput: Schedule:Day:Interval="SCHEDULE DAY 12", Blank Schedule Type Limits Name input -- will not be validated.
   ** Warning ** ProcessScheduleInput: Schedule:Day:Interval="SCHEDULE DAY 13", Blank Schedule Type Limits Name input -- will not be validated.
   ** Warning ** ProcessScheduleInput: Schedule:Day:Interval="SCHEDULE DAY 14", Blank Schedule Type Limits Name input -- will not be validated.
   ** Warning ** ProcessScheduleInput: Schedule:Day:Interval="SCHEDULE DAY 15", Blank Schedule Type Limits Name input -- will not be validated.
   ** Warning ** ProcessScheduleInput: Schedule:Day:Interval="SCHEDULE DAY 16", Blank Schedule Type Limits Name input -- will not be validated.
   ** Warning ** ProcessScheduleInput: Schedule:Day:Interval="SCHEDULE DAY 17", Blank Schedule Type Limits Name input -- will not be validated.
   ** Warning ** ProcessScheduleInput: Schedule:Day:Interval="SCHEDULE DAY 18", Blank Schedule Type Limits Name input -- will not be validated.
   ** Warning ** ProcessScheduleInput: Schedule:Day:Interval="SCHEDULE DAY 19", Blank Schedule Type Limits Name input -- will not be validated.
   ** Warning ** ProcessScheduleInput: Schedule:Day:Interval="SCHEDULE DAY 2", Blank Schedule Type Limits Name input -- will not be validated.
   ** Warning ** ProcessScheduleInput: Schedule:Day:Interval="SCHEDULE DAY 20", Blank Schedule Type Limits Name input -- will not be validated.
   ** Warning ** ProcessScheduleInput: Schedule:Day:Interval="SCHEDULE DAY 3", Blank Schedule Type Limits Name input -- will not be validated.
   ** Warning ** ProcessScheduleInput: Schedule:Day:Interval="SCHEDULE DAY 4", Blank Schedule Type Limits Name input -- will not be validated.
   ** Warning ** ProcessScheduleInput: Schedule:Day:Interval="SCHEDULE DAY 5", Blank Schedule Type Limits Name input -- will not be validated.
   ** Warning ** ProcessScheduleInput: Schedule:Day:Interval="SCHEDULE DAY 6", Blank Schedule Type Limits Name input -- will not be validated.
   ** Warning ** ProcessScheduleInput: Schedule:Day:Interval="SCHEDULE DAY 7", Blank Schedule Type Limits Name input -- will not be validated.
   ** Warning ** ProcessScheduleInput: Schedule:Day:Interval="SCHEDULE DAY 8", Blank Schedule Type Limits Name input -- will not be validated.
   ** Warning ** ProcessScheduleInput: Schedule:Day:Interval="SCHEDULE DAY 9", Blank Schedule Type Limits Name input -- will not be validated.
   ** Warning ** ProcessScheduleInput: Schedule:Year="ECONOMIZER MAX OA FRACTION 70 PCT", Blank Schedule Type Limits Name input -- will not be validated.
   ** Warning ** ProcessScheduleInput: Schedule:Year="ELEVATOR SCHEDULE", Blank Schedule Type Limits Name input -- will not be validated.
   ** Warning ** ProcessScheduleInput: Schedule:Constant="ALWAYS OFF DISCRETE", Blank Schedule Type Limits Name input -- will not be validated.
   ** Warning ** ProcessScheduleInput: Schedule:Constant="ALWAYS ON CONTINUOUS", Blank Schedule Type Limits Name input -- will not be validated.
   ** Warning ** CheckUsedConstructions: There are 10 nominally unused constructions in input.
   **   ~~~   ** For explicit details on each unused construction, use Output:Diagnostics,DisplayExtraWarnings;
   ** Warning ** GetInternalHeatGains: People="OUTPATIENT ANESTHESIA PEOPLE 1" has comfort related schedules but no thermal comfort model selected.
   **   ~~~   ** If schedules are specified for air velocity, clothing insulation, and/or work efficiency but no thermal comfort
   **   ~~~   ** thermal comfort model is selected, the schedules will be listed as unused schedules in the .err file.
   **   ~~~   ** To avoid these errors, select a valid thermal comfort model or eliminate these schedules in the PEOPLE input.
   ** Warning ** GetInternalHeatGains: People="OUTPATIENT CAFE PEOPLE 1" has comfort related schedules but no thermal comfort model selected.
   **   ~~~   ** If schedules are specified for air velocity, clothing insulation, and/or work efficiency but no thermal comfort
   **   ~~~   ** thermal comfort model is selected, the schedules will be listed as unused schedules in the .err file.
   **   ~~~   ** To avoid these errors, select a valid thermal comfort model or eliminate these schedules in the PEOPLE input.
   ** Warning ** GetInternalHeatGains: People="OUTPATIENT CLEANWORK PEOPLE 1" has comfort related schedules but no thermal comfort model selected.
   **   ~~~   ** If schedules are specified for air velocity, clothing insulation, and/or work efficiency but no thermal comfort
   **   ~~~   ** thermal comfort model is selected, the schedules will be listed as unused schedules in the .err file.
   **   ~~~   ** To avoid these errors, select a valid thermal comfort model or eliminate these schedules in the PEOPLE input.
   ** Warning ** GetInternalHeatGains: People="OUTPATIENT CONFERENCE PEOPLE 1" has comfort related schedules but no thermal comfort model selected.
   **   ~~~   ** If schedules are specified for air velocity, clothing insulation, and/or work efficiency but no thermal comfort
   **   ~~~   ** thermal comfort model is selected, the schedules will be listed as unused schedules in the .err file.
   **   ~~~   ** To avoid these errors, select a valid thermal comfort model or eliminate these schedules in the PEOPLE input.
   ** Warning ** GetInternalHeatGains: People="OUTPATIENT IT_ROOM PEOPLE 1" has comfort related schedules but no thermal comfort model selected.
   **   ~~~   ** If schedules are specified for air velocity, clothing insulation, and/or work efficiency but no thermal comfort
   **   ~~~   ** thermal comfort model is selected, the schedules will be listed as unused schedules in the .err file.
   **   ~~~   ** To avoid these errors, select a valid thermal comfort model or eliminate these schedules in the PEOPLE input.
   ** Warning ** GetInternalHeatGains: People="OUTPATIENT MRI PEOPLE 1" has comfort related schedules but no thermal comfort model selected.
   **   ~~~   ** If schedules are specified for air velocity, clothing insulation, and/or work efficiency but no thermal comfort
   **   ~~~   ** thermal comfort model is selected, the schedules will be listed as unused schedules in the .err file.
   **   ~~~   ** To avoid these errors, select a valid thermal comfort model or eliminate these schedules in the PEOPLE input.
   ** Warning ** GetInternalHeatGains: People="OUTPATIENT MRI_CONTROL PEOPLE 1" has comfort related schedules but no thermal comfort model selected.
   **   ~~~   ** If schedules are specified for air velocity, clothing insulation, and/or work efficiency but no thermal comfort
   **   ~~~   ** thermal comfort model is selected, the schedules will be listed as unused schedules in the .err file.
   **   ~~~   ** To avoid these errors, select a valid thermal comfort model or eliminate these schedules in the PEOPLE input.
   ** Warning ** GetInternalHeatGains: People="OUTPATIENT PREOP PEOPLE 1" has comfort related schedules but no thermal comfort model selected.
   **   ~~~   ** If schedules are specified for air velocity, clothing insulation, and/or work efficiency but no thermal comfort
   **   ~~~   ** thermal comfort model is selected, the schedules will be listed as unused schedules in the .err file.
   **   ~~~   ** To avoid these errors, select a valid thermal comfort model or eliminate these schedules in the PEOPLE input.
   ** Warning ** GetInternalHeatGains: People="OUTPATIENT PROCEDUREROOM PEOPLE 1" has comfort related schedules but no thermal comfort model selected.
   **   ~~~   ** If schedules are specified for air velocity, clothing insulation, and/or work efficiency but no thermal comfort
   **   ~~~   ** thermal comfort model is selected, the schedules will be listed as unused schedules in the .err file.
   **   ~~~   ** To avoid these errors, select a valid thermal comfort model or eliminate these schedules in the PEOPLE input.
   ** Warning ** GetInternalHeatGains: People="OUTPATIENT SOIL WORK PEOPLE 1" has comfort related schedules but no thermal comfort model selected.
   **   ~~~   ** If schedules are specified for air velocity, clothing insulation, and/or work efficiency but no thermal comfort
   **   ~~~   ** thermal comfort model is selected, the schedules will be listed as unused schedules in the .err file.
   **   ~~~   ** To avoid these errors, select a valid thermal comfort model or eliminate these schedules in the PEOPLE input.
   ** Warning ** GetInternalHeatGains: People="OUTPATIENT LOBBY PEOPLE 1" has comfort related schedules but no thermal comfort model selected.
   **   ~~~   ** If schedules are specified for air velocity, clothing insulation, and/or work efficiency but no thermal comfort
   **   ~~~   ** thermal comfort model is selected, the schedules will be listed as unused schedules in the .err file.
   **   ~~~   ** To avoid these errors, select a valid thermal comfort model or eliminate these schedules in the PEOPLE input.
   ** Warning ** GetInternalHeatGains: People="OUTPATIENT LOCKERROOM PEOPLE 1" has comfort related schedules but no thermal comfort model selected.
   **   ~~~   ** If schedules are specified for air velocity, clothing insulation, and/or work efficiency but no thermal comfort
   **   ~~~   ** thermal comfort model is selected, the schedules will be listed as unused schedules in the .err file.
   **   ~~~   ** To avoid these errors, select a valid thermal comfort model or eliminate these schedules in the PEOPLE input.
   ** Warning ** GetInternalHeatGains: People="OUTPATIENT NURSESTATION PEOPLE 1" has comfort related schedules but no thermal comfort model selected.
   **   ~~~   ** If schedules are specified for air velocity, clothing insulation, and/or work efficiency but no thermal comfort
   **   ~~~   ** thermal comfort model is selected, the schedules will be listed as unused schedules in the .err file.
   **   ~~~   ** To avoid these errors, select a valid thermal comfort model or eliminate these schedules in the PEOPLE input.
   ** Warning ** GetInternalHeatGains: People="OUTPATIENT PREOP PEOPLE 2" has comfort related schedules but no thermal comfort model selected.
   **   ~~~   ** If schedules are specified for air velocity, clothing insulation, and/or work efficiency but no thermal comfort
   **   ~~~   ** thermal comfort model is selected, the schedules will be listed as unused schedules in the .err file.
   **   ~~~   ** To avoid these errors, select a valid thermal comfort model or eliminate these schedules in the PEOPLE input.
   ** Warning ** GetInternalHeatGains: People="OUTPATIENT XRAY PEOPLE 1" has comfort related schedules but no thermal comfort model selected.
   **   ~~~   ** If schedules are specified for air velocity, clothing insulation, and/or work efficiency but no thermal comfort
   **   ~~~   ** thermal comfort model is selected, the schedules will be listed as unused schedules in the .err file.
   **   ~~~   ** To avoid these errors, select a valid thermal comfort model or eliminate these schedules in the PEOPLE input.
   ** Warning ** GetInternalHeatGains: People="OUTPATIENT LOUNGE PEOPLE 1" has comfort related schedules but no thermal comfort model selected.
   **   ~~~   ** If schedules are specified for air velocity, clothing insulation, and/or work efficiency but no thermal comfort
   **   ~~~   ** thermal comfort model is selected, the schedules will be listed as unused schedules in the .err file.
   **   ~~~   ** To avoid these errors, select a valid thermal comfort model or eliminate these schedules in the PEOPLE input.
   ** Warning ** GetInternalHeatGains: People="OUTPATIENT OR PEOPLE 1" has comfort related schedules but no thermal comfort model selected.
   **   ~~~   ** If schedules are specified for air velocity, clothing insulation, and/or work efficiency but no thermal comfort
   **   ~~~   ** thermal comfort model is selected, the schedules will be listed as unused schedules in the .err file.
   **   ~~~   ** To avoid these errors, select a valid thermal comfort model or eliminate these schedules in the PEOPLE input.
   ** Warning ** GetInternalHeatGains: People="OUTPATIENT PACU PEOPLE 1" has comfort related schedules but no thermal comfort model selected.
   **   ~~~   ** If schedules are specified for air velocity, clothing insulation, and/or work efficiency but no thermal comfort
   **   ~~~   ** thermal comfort model is selected, the schedules will be listed as unused schedules in the .err file.
   **   ~~~   ** To avoid these errors, select a valid thermal comfort model or eliminate these schedules in the PEOPLE input.
   ** Warning ** GetInternalHeatGains: People="OUTPATIENT XRAY PEOPLE 2" has comfort related schedules but no thermal comfort model selected.
   **   ~~~   ** If schedules are specified for air velocity, clothing insulation, and/or work efficiency but no thermal comfort
   **   ~~~   ** thermal comfort model is selected, the schedules will be listed as unused schedules in the .err file.
   **   ~~~   ** To avoid these errors, select a valid thermal comfort model or eliminate these schedules in the PEOPLE input.
   ** Warning ** GetInternalHeatGains: People="OUTPATIENT OR PEOPLE 2" has comfort related schedules but no thermal comfort model selected.
   **   ~~~   ** If schedules are specified for air velocity, clothing insulation, and/or work efficiency but no thermal comfort
   **   ~~~   ** thermal comfort model is selected, the schedules will be listed as unused schedules in the .err file.
   **   ~~~   ** To avoid these errors, select a valid thermal comfort model or eliminate these schedules in the PEOPLE input.
   ** Warning ** GetInternalHeatGains: People="OUTPATIENT PHYSICALTHERAPY PEOPLE 1" has comfort related schedules but no thermal comfort model selected.
   **   ~~~   ** If schedules are specified for air velocity, clothing insulation, and/or work efficiency but no thermal comfort
   **   ~~~   ** thermal comfort model is selected, the schedules will be listed as unused schedules in the .err file.
   **   ~~~   ** To avoid these errors, select a valid thermal comfort model or eliminate these schedules in the PEOPLE input.
   ** Warning ** GetInternalHeatGains: People="OUTPATIENT RECEPTION PEOPLE 1" has comfort related schedules but no thermal comfort model selected.
   **   ~~~   ** If schedules are specified for air velocity, clothing insulation, and/or work efficiency but no thermal comfort
   **   ~~~   ** thermal comfort model is selected, the schedules will be listed as unused schedules in the .err file.
   **   ~~~   ** To avoid these errors, select a valid thermal comfort model or eliminate these schedules in the PEOPLE input.
   ** Warning ** GetInternalHeatGains: People="OUTPATIENT EXAM PEOPLE 1" has comfort related schedules but no thermal comfort model selected.
   **   ~~~   ** If schedules are specified for air velocity, clothing insulation, and/or work efficiency but no thermal comfort
   **   ~~~   ** thermal comfort model is selected, the schedules will be listed as unused schedules in the .err file.
   **   ~~~   ** To avoid these errors, select a valid thermal comfort model or eliminate these schedules in the PEOPLE input.
   ** Warning ** GetInternalHeatGains: People="OUTPATIENT PHYSICALTHERAPY PEOPLE 2" has comfort related schedules but no thermal comfort model selected.
   **   ~~~   ** If schedules are specified for air velocity, clothing insulation, and/or work efficiency but no thermal comfort
   **   ~~~   ** thermal comfort model is selected, the schedules will be listed as unused schedules in the .err file.
   **   ~~~   ** To avoid these errors, select a valid thermal comfort model or eliminate these schedules in the PEOPLE input.
   ** Warning ** GetInternalHeatGains: People="OUTPATIENT EXAM PEOPLE 2" has comfort related schedules but no thermal comfort model selected.
   **   ~~~   ** If schedules are specified for air velocity, clothing insulation, and/or work efficiency but no thermal comfort
   **   ~~~   ** thermal comfort model is selected, the schedules will be listed as unused schedules in the .err file.
   **   ~~~   ** To avoid these errors, select a valid thermal comfort model or eliminate these schedules in the PEOPLE input.
   ** Warning ** GetInternalHeatGains: People="OUTPATIENT OFFICE PEOPLE 1" has comfort related schedules but no thermal comfort model selected.
   **   ~~~   ** If schedules are specified for air velocity, clothing insulation, and/or work efficiency but no thermal comfort
   **   ~~~   ** thermal comfort model is selected, the schedules will be listed as unused schedules in the .err file.
   **   ~~~   ** To avoid these errors, select a valid thermal comfort model or eliminate these schedules in the PEOPLE input.
   ** Warning ** GetInternalHeatGains: People="OUTPATIENT OFFICE PEOPLE 2" has comfort related schedules but no thermal comfort model selected.
   **   ~~~   ** If schedules are specified for air velocity, clothing insulation, and/or work efficiency but no thermal comfort
   **   ~~~   ** thermal comfort model is selected, the schedules will be listed as unused schedules in the .err file.
   **   ~~~   ** To avoid these errors, select a valid thermal comfort model or eliminate these schedules in the PEOPLE input.
   ** Warning ** GetInternalHeatGains: People="OUTPATIENT OFFICE PEOPLE 3" has comfort related schedules but no thermal comfort model selected.
   **   ~~~   ** If schedules are specified for air velocity, clothing insulation, and/or work efficiency but no thermal comfort
   **   ~~~   ** thermal comfort model is selected, the schedules will be listed as unused schedules in the .err file.
   **   ~~~   ** To avoid these errors, select a valid thermal comfort model or eliminate these schedules in the PEOPLE input.
   ** Warning ** Seems like you already tried to get a Handle on this Actuator 1times.
   **   ~~~   ** Occurred for componentType='SCHEDULE:YEAR', controlType='SCHEDULE VALUE', uniqueKey='OUTPATIENTHEALTHCARE CLGSETP_SCH_NO_SETBACK'.
   **   ~~~   ** You should take note that there is a risk of overwritting.
   ** Warning ** Seems like you already tried to get a Handle on this Actuator 1times.
   **   ~~~   ** Occurred for componentType='SCHEDULE:YEAR', controlType='SCHEDULE VALUE', uniqueKey='OUTPATIENTHEALTHCARE HTGSETP_SCH_YES_OPTIMUM'.
   **   ~~~   ** You should take note that there is a risk of overwritting.
   ** Warning ** Seems like you already tried to get a Handle on this Actuator 2times.
   **   ~~~   ** Occurred for componentType='SCHEDULE:YEAR', controlType='SCHEDULE VALUE', uniqueKey='OUTPATIENTHEALTHCARE CLGSETP_SCH_NO_SETBACK'.
   **   ~~~   ** You should take note that there is a risk of overwritting.
   ** Warning ** Seems like you already tried to get a Handle on this Actuator 2times.
   **   ~~~   ** Occurred for componentType='SCHEDULE:YEAR', controlType='SCHEDULE VALUE', uniqueKey='OUTPATIENTHEALTHCARE HTGSETP_SCH_YES_OPTIMUM'.
   **   ~~~   ** You should take note that there is a risk of overwritting.
   ** Warning ** Seems like you already tried to get a Handle on this Actuator 3times.
   **   ~~~   ** Occurred for componentType='SCHEDULE:YEAR', controlType='SCHEDULE VALUE', uniqueKey='OUTPATIENTHEALTHCARE CLGSETP_SCH_NO_SETBACK'.
   **   ~~~   ** You should take note that there is a risk of overwritting.
   ** Warning ** Seems like you already tried to get a Handle on this Actuator 3times.
   **   ~~~   ** Occurred for componentType='SCHEDULE:YEAR', controlType='SCHEDULE VALUE', uniqueKey='OUTPATIENTHEALTHCARE HTGSETP_SCH_YES_OPTIMUM'.
   **   ~~~   ** You should take note that there is a risk of overwritting.
   ** Warning ** Seems like you already tried to get a Handle on this Actuator 4times.
   **   ~~~   ** Occurred for componentType='SCHEDULE:YEAR', controlType='SCHEDULE VALUE', uniqueKey='OUTPATIENTHEALTHCARE CLGSETP_SCH_NO_SETBACK'.
   **   ~~~   ** You should take note that there is a risk of overwritting.
   ** Warning ** Seems like you already tried to get a Handle on this Actuator 4times.
   **   ~~~   ** Occurred for componentType='SCHEDULE:YEAR', controlType='SCHEDULE VALUE', uniqueKey='OUTPATIENTHEALTHCARE HTGSETP_SCH_YES_OPTIMUM'.
   **   ~~~   ** You should take note that there is a risk of overwritting.
   ** Warning ** Seems like you already tried to get a Handle on this Actuator 5times.
   **   ~~~   ** Occurred for componentType='SCHEDULE:YEAR', controlType='SCHEDULE VALUE', uniqueKey='OUTPATIENTHEALTHCARE CLGSETP_SCH_NO_SETBACK'.
   **   ~~~   ** You should take note that there is a risk of overwritting.
   ** Warning ** Seems like you already tried to get a Handle on this Actuator 5times.
   **   ~~~   ** Occurred for componentType='SCHEDULE:YEAR', controlType='SCHEDULE VALUE', uniqueKey='OUTPATIENTHEALTHCARE HTGSETP_SCH_YES_OPTIMUM'.
   **   ~~~   ** You should take note that there is a risk of overwritting.
   ** Warning ** Seems like you already tried to get a Handle on this Actuator 6times.
   **   ~~~   ** Occurred for componentType='SCHEDULE:YEAR', controlType='SCHEDULE VALUE', uniqueKey='OUTPATIENTHEALTHCARE CLGSETP_SCH_NO_SETBACK'.
   **   ~~~   ** You should take note that there is a risk of overwritting.
   ** Warning ** Seems like you already tried to get a Handle on this Actuator 6times.
   **   ~~~   ** Occurred for componentType='SCHEDULE:YEAR', controlType='SCHEDULE VALUE', uniqueKey='OUTPATIENTHEALTHCARE HTGSETP_SCH_YES_OPTIMUM'.
   **   ~~~   ** You should take note that there is a risk of overwritting.
   ** Warning ** Seems like you already tried to get a Handle on this Actuator 7times.
   **   ~~~   ** Occurred for componentType='SCHEDULE:YEAR', controlType='SCHEDULE VALUE', uniqueKey='OUTPATIENTHEALTHCARE CLGSETP_SCH_NO_SETBACK'.
   **   ~~~   ** You should take note that there is a risk of overwritting.
   ** Warning ** Seems like you already tried to get a Handle on this Actuator 7times.
   **   ~~~   ** Occurred for componentType='SCHEDULE:YEAR', controlType='SCHEDULE VALUE', uniqueKey='OUTPATIENTHEALTHCARE HTGSETP_SCH_YES_OPTIMUM'.
   **   ~~~   ** You should take note that there is a risk of overwritting.
   ** Warning ** Seems like you already tried to get a Handle on this Actuator 8times.
   **   ~~~   ** Occurred for componentType='SCHEDULE:YEAR', controlType='SCHEDULE VALUE', uniqueKey='OUTPATIENTHEALTHCARE CLGSETP_SCH_NO_SETBACK'.
   **   ~~~   ** You should take note that there is a risk of overwritting.
   ** Warning ** Seems like you already tried to get a Handle on this Actuator 8times.
   **   ~~~   ** Occurred for componentType='SCHEDULE:YEAR', controlType='SCHEDULE VALUE', uniqueKey='OUTPATIENTHEALTHCARE HTGSETP_SCH_YES_OPTIMUM'.
   **   ~~~   ** You should take note that there is a risk of overwritting.
   ** Warning ** Seems like you already tried to get a Handle on this Actuator 9times.
   **   ~~~   ** Occurred for componentType='SCHEDULE:YEAR', controlType='SCHEDULE VALUE', uniqueKey='OUTPATIENTHEALTHCARE CLGSETP_SCH_NO_SETBACK'.
   **   ~~~   ** You should take note that there is a risk of overwritting.
   ** Warning ** Seems like you already tried to get a Handle on this Actuator 9times.
   **   ~~~   ** Occurred for componentType='SCHEDULE:YEAR', controlType='SCHEDULE VALUE', uniqueKey='OUTPATIENTHEALTHCARE HTGSETP_SCH_YES_OPTIMUM'.
   **   ~~~   ** You should take note that there is a risk of overwritting.
   ** Warning ** DetermineShadowingCombinations: There are 7 surfaces which are receiving surfaces and are non-convex.
   **   ~~~   ** ...Shadowing values may be inaccurate. Check .shd report file for more surface shading details
   **   ~~~   ** ...Add Output:Diagnostics,DisplayExtraWarnings; to see individual warnings for each surface.
   ** Warning ** GetElectricEIRChillerInput: Chiller:Electric:EIR="90.1-2004 WATERCOOLED  ROTARY SCREW CHILLER 0 1110TONS 0.6KW/TON"
   **   ~~~   ** Energy input ratio as a function of temperature curve output is not equal to 1.0 (+ or - 10%) at reference conditions.
   **   ~~~   ** Curve output at reference conditions = 1.205
   ** Warning ** DeterminePolygonOverlap: Too many figures [>15000]  detected in an overlap calculation. Use Output:Diagnostics,DisplayExtraWarnings; for more details.
   ** Warning ** Calculated design heating load for zone=BUILDING STORY 2 THERMALZONE is zero.
   **   ~~~   ** Check Sizing:Zone and ZoneControl:Thermostat inputs.
   ************* Beginning System Sizing Calculations
   ** Warning ** Since Zone Minimum Air Flow Input Method = CONSTANT, input for Fixed Minimum Air Flow Rate will be ignored.
   **   ~~~   ** Occurs in AirTerminal:SingleDuct:VAV:Reheat = BUILDING STORY 1 THERMALZONE VAV TERMINAL
   ** Warning ** Since Damper Heating Action = NORMAL, input for Maximum Flow Fraction During Reheat will be ignored.
   **   ~~~   ** Occurs in AirTerminal:SingleDuct:VAV:Reheat = BUILDING STORY 1 THERMALZONE VAV TERMINAL
   ** Warning ** Since Zone Minimum Air Flow Input Method = CONSTANT, input for Fixed Minimum Air Flow Rate will be ignored.
   **   ~~~   ** Occurs in AirTerminal:SingleDuct:VAV:Reheat = BUILDING STORY 10 THERMALZONE VAV TERMINAL
   ** Warning ** Since Damper Heating Action = NORMAL, input for Maximum Flow Fraction During Reheat will be ignored.
   **   ~~~   ** Occurs in AirTerminal:SingleDuct:VAV:Reheat = BUILDING STORY 10 THERMALZONE VAV TERMINAL
   ** Warning ** Since Zone Minimum Air Flow Input Method = CONSTANT, input for Fixed Minimum Air Flow Rate will be ignored.
   **   ~~~   ** Occurs in AirTerminal:SingleDuct:VAV:Reheat = BUILDING STORY 2 THERMALZONE VAV TERMINAL
   ** Warning ** Since Damper Heating Action = NORMAL, input for Maximum Flow Fraction During Reheat will be ignored.
   **   ~~~   ** Occurs in AirTerminal:SingleDuct:VAV:Reheat = BUILDING STORY 2 THERMALZONE VAV TERMINAL
   ** Warning ** Since Zone Minimum Air Flow Input Method = CONSTANT, input for Fixed Minimum Air Flow Rate will be ignored.
   **   ~~~   ** Occurs in AirTerminal:SingleDuct:VAV:Reheat = BUILDING STORY 3 THERMALZONE VAV TERMINAL
   ** Warning ** Since Damper Heating Action = NORMAL, input for Maximum Flow Fraction During Reheat will be ignored.
   **   ~~~   ** Occurs in AirTerminal:SingleDuct:VAV:Reheat = BUILDING STORY 3 THERMALZONE VAV TERMINAL
   ** Warning ** Since Zone Minimum Air Flow Input Method = CONSTANT, input for Fixed Minimum Air Flow Rate will be ignored.
   **   ~~~   ** Occurs in AirTerminal:SingleDuct:VAV:Reheat = BUILDING STORY 4 THERMALZONE VAV TERMINAL
   ** Warning ** Since Damper Heating Action = NORMAL, input for Maximum Flow Fraction During Reheat will be ignored.
   **   ~~~   ** Occurs in AirTerminal:SingleDuct:VAV:Reheat = BUILDING STORY 4 THERMALZONE VAV TERMINAL
   ** Warning ** Since Zone Minimum Air Flow Input Method = CONSTANT, input for Fixed Minimum Air Flow Rate will be ignored.
   **   ~~~   ** Occurs in AirTerminal:SingleDuct:VAV:Reheat = BUILDING STORY 5 THERMALZONE VAV TERMINAL
   ** Warning ** Since Damper Heating Action = NORMAL, input for Maximum Flow Fraction During Reheat will be ignored.
   **   ~~~   ** Occurs in AirTerminal:SingleDuct:VAV:Reheat = BUILDING STORY 5 THERMALZONE VAV TERMINAL
   ** Warning ** Since Zone Minimum Air Flow Input Method = CONSTANT, input for Fixed Minimum Air Flow Rate will be ignored.
   **   ~~~   ** Occurs in AirTerminal:SingleDuct:VAV:Reheat = BUILDING STORY 6 THERMALZONE VAV TERMINAL
   ** Warning ** Since Damper Heating Action = NORMAL, input for Maximum Flow Fraction During Reheat will be ignored.
   **   ~~~   ** Occurs in AirTerminal:SingleDuct:VAV:Reheat = BUILDING STORY 6 THERMALZONE VAV TERMINAL
   ** Warning ** Since Zone Minimum Air Flow Input Method = CONSTANT, input for Fixed Minimum Air Flow Rate will be ignored.
   **   ~~~   ** Occurs in AirTerminal:SingleDuct:VAV:Reheat = BUILDING STORY 7 THERMALZONE VAV TERMINAL
   ** Warning ** Since Damper Heating Action = NORMAL, input for Maximum Flow Fraction During Reheat will be ignored.
   **   ~~~   ** Occurs in AirTerminal:SingleDuct:VAV:Reheat = BUILDING STORY 7 THERMALZONE VAV TERMINAL
   ** Warning ** Since Zone Minimum Air Flow Input Method = CONSTANT, input for Fixed Minimum Air Flow Rate will be ignored.
   **   ~~~   ** Occurs in AirTerminal:SingleDuct:VAV:Reheat = BUILDING STORY 8 THERMALZONE VAV TERMINAL
   ** Warning ** Since Damper Heating Action = NORMAL, input for Maximum Flow Fraction During Reheat will be ignored.
   **   ~~~   ** Occurs in AirTerminal:SingleDuct:VAV:Reheat = BUILDING STORY 8 THERMALZONE VAV TERMINAL
   ** Warning ** Since Zone Minimum Air Flow Input Method = CONSTANT, input for Fixed Minimum Air Flow Rate will be ignored.
   **   ~~~   ** Occurs in AirTerminal:SingleDuct:VAV:Reheat = BUILDING STORY 9 THERMALZONE VAV TERMINAL
   ** Warning ** Since Damper Heating Action = NORMAL, input for Maximum Flow Fraction During Reheat will be ignored.
   **   ~~~   ** Occurs in AirTerminal:SingleDuct:VAV:Reheat = BUILDING STORY 9 THERMALZONE VAV TERMINAL
   ************* Beginning Plant Sizing Calculations
   ** Warning ** GetOAControllerInputs: Controller:MechanicalVentilation="1 ZONE VAV VENT CONTROLLER
   **   ~~~   ** Cannot locate a matching DesignSpecification:ZoneAirDistribution object for Zone="BUILDING STORY 1 THERMALZONE".
   **   ~~~   ** Using default zone air distribution effectiveness of 1.0 for heating and cooling.
   ** Warning ** GetOAControllerInputs: Controller:MechanicalVentilation="1 ZONE VAV 1 VENT CONTROLLER
   **   ~~~   ** Cannot locate a matching DesignSpecification:ZoneAirDistribution object for Zone="BUILDING STORY 10 THERMALZONE".
   **   ~~~   ** Using default zone air distribution effectiveness of 1.0 for heating and cooling.
   ** Warning ** GetOAControllerInputs: Controller:MechanicalVentilation="1 ZONE VAV 2 VENT CONTROLLER
   **   ~~~   ** Cannot locate a matching DesignSpecification:ZoneAirDistribution object for Zone="BUILDING STORY 2 THERMALZONE".
   **   ~~~   ** Using default zone air distribution effectiveness of 1.0 for heating and cooling.
   ** Warning ** GetOAControllerInputs: Controller:MechanicalVentilation="1 ZONE VAV 3 VENT CONTROLLER
   **   ~~~   ** Cannot locate a matching DesignSpecification:ZoneAirDistribution object for Zone="BUILDING STORY 3 THERMALZONE".
   **   ~~~   ** Using default zone air distribution effectiveness of 1.0 for heating and cooling.
   ** Warning ** GetOAControllerInputs: Controller:MechanicalVentilation="1 ZONE VAV 4 VENT CONTROLLER
   **   ~~~   ** Cannot locate a matching DesignSpecification:ZoneAirDistribution object for Zone="BUILDING STORY 4 THERMALZONE".
   **   ~~~   ** Using default zone air distribution effectiveness of 1.0 for heating and cooling.
   ** Warning ** GetOAControllerInputs: Controller:MechanicalVentilation="1 ZONE VAV 5 VENT CONTROLLER
   **   ~~~   ** Cannot locate a matching DesignSpecification:ZoneAirDistribution object for Zone="BUILDING STORY 5 THERMALZONE".
   **   ~~~   ** Using default zone air distribution effectiveness of 1.0 for heating and cooling.
   ** Warning ** GetOAControllerInputs: Controller:MechanicalVentilation="1 ZONE VAV 6 VENT CONTROLLER
   **   ~~~   ** Cannot locate a matching DesignSpecification:ZoneAirDistribution object for Zone="BUILDING STORY 6 THERMALZONE".
   **   ~~~   ** Using default zone air distribution effectiveness of 1.0 for heating and cooling.
   ** Warning ** GetOAControllerInputs: Controller:MechanicalVentilation="1 ZONE VAV 7 VENT CONTROLLER
   **   ~~~   ** Cannot locate a matching DesignSpecification:ZoneAirDistribution object for Zone="BUILDING STORY 7 THERMALZONE".
   **   ~~~   ** Using default zone air distribution effectiveness of 1.0 for heating and cooling.
   ** Warning ** GetOAControllerInputs: Controller:MechanicalVentilation="1 ZONE VAV 8 VENT CONTROLLER
   **   ~~~   ** Cannot locate a matching DesignSpecification:ZoneAirDistribution object for Zone="BUILDING STORY 8 THERMALZONE".
   **   ~~~   ** Using default zone air distribution effectiveness of 1.0 for heating and cooling.
   ** Warning ** GetOAControllerInputs: Controller:MechanicalVentilation="1 ZONE VAV 9 VENT CONTROLLER
   **   ~~~   ** Cannot locate a matching DesignSpecification:ZoneAirDistribution object for Zone="BUILDING STORY 9 THERMALZONE".
   **   ~~~   ** Using default zone air distribution effectiveness of 1.0 for heating and cooling.
   ** Warning ** In calculating the design coil UA for Coil:Cooling:Water 1 ZONE VAV CLG COIL
   **   ~~~   ** the coil bypass factor is unrealistically large;
   **   ~~~   ** The initial design conditions are: Tair,in = 22.9003
   **   ~~~   **                                    Wair,in = 1.105466E-002
   **   ~~~   **                                    Twater,in = 6.6667
   **   ~~~   **                                    Tair,out = 10.8676
   **   ~~~   **                                    Wair,out = 8.500000E-003
   ** Warning ** In calculating the design coil UA for Coil:Cooling:Water 1 ZONE VAV 1 CLG COIL
   **   ~~~   ** the coil bypass factor is unrealistically large;
   **   ~~~   ** The initial design conditions are: Tair,in = 22.8653
   **   ~~~   **                                    Wair,in = 9.193846E-003
   **   ~~~   **                                    Twater,in = 6.6667
   **   ~~~   **                                    Tair,out = 10.8612
   **   ~~~   **                                    Wair,out = 8.500000E-003
   ** Warning ** In calculating the design coil UA for Coil:Cooling:Water 1 ZONE VAV 2 CLG COIL
   **   ~~~   ** the coil bypass factor is unrealistically large;
   **   ~~~   ** The initial design conditions are: Tair,in = 25.6241
   **   ~~~   **                                    Wair,in = 1.094788E-002
   **   ~~~   **                                    Twater,in = 6.6667
   **   ~~~   **                                    Tair,out = 10.8976
   **   ~~~   **                                    Wair,out = 8.500000E-003
   ** Warning ** In calculating the design coil UA for Coil:Cooling:Water 1 ZONE VAV 3 CLG COIL
   **   ~~~   ** the coil bypass factor is unrealistically large;
   **   ~~~   ** The initial design conditions are: Tair,in = 24.3923
   **   ~~~   **                                    Wair,in = 1.053604E-002
   **   ~~~   **                                    Twater,in = 6.6667
   **   ~~~   **                                    Tair,out = 10.8659
   **   ~~~   **                                    Wair,out = 8.500000E-003
   ** Warning ** In calculating the design coil UA for Coil:Cooling:Water 1 ZONE VAV 4 CLG COIL
   **   ~~~   ** the coil bypass factor is unrealistically large;
   **   ~~~   ** The initial design conditions are: Tair,in = 24.5894
   **   ~~~   **                                    Wair,in = 1.041286E-002
   **   ~~~   **                                    Twater,in = 6.6667
   **   ~~~   **                                    Tair,out = 10.8958
   **   ~~~   **                                    Wair,out = 8.500000E-003
   ** Warning ** In calculating the design coil UA for Coil:Cooling:Water 1 ZONE VAV 5 CLG COIL
   **   ~~~   ** the coil bypass factor is unrealistically large;
   **   ~~~   ** The initial design conditions are: Tair,in = 22.8358
   **   ~~~   **                                    Wair,in = 9.492724E-003
   **   ~~~   **                                    Twater,in = 6.6667
   **   ~~~   **                                    Tair,out = 10.8622
   **   ~~~   **                                    Wair,out = 8.500000E-003
   ** Warning ** In calculating the design coil UA for Coil:Cooling:Water 1 ZONE VAV 6 CLG COIL
   **   ~~~   ** the coil bypass factor is unrealistically large;
   **   ~~~   ** The initial design conditions are: Tair,in = 25.2624
   **   ~~~   **                                    Wair,in = 1.096310E-002
   **   ~~~   **                                    Twater,in = 6.6667
   **   ~~~   **                                    Tair,out = 10.8977
   **   ~~~   **                                    Wair,out = 8.500000E-003
   ** Warning ** In calculating the design coil UA for Coil:Cooling:Water 1 ZONE VAV 7 CLG COIL
   **   ~~~   ** the coil bypass factor is unrealistically large;
   **   ~~~   ** The initial design conditions are: Tair,in = 22.8203
   **   ~~~   **                                    Wair,in = 9.474877E-003
   **   ~~~   **                                    Twater,in = 6.6667
   **   ~~~   **                                    Tair,out = 10.8622
   **   ~~~   **                                    Wair,out = 8.500000E-003
   ** Warning ** In calculating the design coil UA for Coil:Cooling:Water 1 ZONE VAV 8 CLG COIL
   **   ~~~   ** the coil bypass factor is unrealistically large;
   **   ~~~   ** The initial design conditions are: Tair,in = 24.6861
   **   ~~~   **                                    Wair,in = 1.055235E-002
   **   ~~~   **                                    Twater,in = 6.6667
   **   ~~~   **                                    Tair,out = 10.8782
   **   ~~~   **                                    Wair,out = 8.500000E-003
   ** Warning ** In calculating the design coil UA for Coil:Cooling:Water 1 ZONE VAV 9 CLG COIL
   **   ~~~   ** the coil bypass factor is unrealistically large;
   **   ~~~   ** The initial design conditions are: Tair,in = 22.6611
   **   ~~~   **                                    Wair,in = 9.283617E-003
   **   ~~~   **                                    Twater,in = 6.6667
   **   ~~~   **                                    Tair,out = 10.5933
   **   ~~~   **                                    Wair,out = 8.500000E-003
   ** Warning ** Meter:Custom="HEATREJECTION:OTHERFUELS", invalid Output Variable or Meter Name="HEATREJECTION:FUELOIL#1".
   **   ~~~   ** ...will not be shown with the Meter results.
   ** Warning ** Meter:Custom="HEATREJECTION:OTHERFUELS", invalid Output Variable or Meter Name="HEATREJECTION:DIESEL".
   **   ~~~   ** ...will not be shown with the Meter results.
   ** Warning ** Meter:Custom="HEATREJECTION:OTHERFUELS", invalid Output Variable or Meter Name="HEATREJECTION:GASOLINE".
   **   ~~~   ** ...will not be shown with the Meter results.
   ** Warning ** Meter:Custom="HEATREJECTION:OTHERFUELS", invalid Output Variable or Meter Name="HEATREJECTION:COAL".
   **   ~~~   ** ...will not be shown with the Meter results.
   ** Warning ** Meter:Custom="HEATREJECTION:OTHERFUELS", invalid Output Variable or Meter Name="HEATREJECTION:STEAM".
   **   ~~~   ** ...will not be shown with the Meter results.
   ** Warning ** Meter:Custom="HEATREJECTION:OTHERFUELS", no items assigned 
   **   ~~~   ** ...will not be shown with the Meter results. This may be caused by a Meter:Custom be assigned to another Meter:Custom.
   ** Warning ** Meter:Custom="HEATING:OTHERFUELS", invalid Output Variable or Meter Name="HEATING:FUELOIL#1".
   **   ~~~   ** ...will not be shown with the Meter results.
   ** Warning ** Meter:Custom="HEATING:OTHERFUELS", invalid Output Variable or Meter Name="HEATING:DIESEL".
   **   ~~~   ** ...will not be shown with the Meter results.
   ** Warning ** Meter:Custom="HEATING:OTHERFUELS", invalid Output Variable or Meter Name="HEATING:GASOLINE".
   **   ~~~   ** ...will not be shown with the Meter results.
   ** Warning ** Meter:Custom="HEATING:OTHERFUELS", invalid Output Variable or Meter Name="HEATING:COAL".
   **   ~~~   ** ...will not be shown with the Meter results.
   ** Warning ** Meter:Custom="HEATING:OTHERFUELS", invalid Output Variable or Meter Name="HEATING:STEAM".
   **   ~~~   ** ...will not be shown with the Meter results.
   ** Warning ** Meter:Custom="HEATING:OTHERFUELS", no items assigned 
   **   ~~~   ** ...will not be shown with the Meter results. This may be caused by a Meter:Custom be assigned to another Meter:Custom.
   ** Warning ** Meter:Custom="WATERSYSTEMS:OTHERFUELS", invalid Output Variable or Meter Name="WATERSYSTEMS:FUELOIL#1".
   **   ~~~   ** ...will not be shown with the Meter results.
   ** Warning ** Meter:Custom="WATERSYSTEMS:OTHERFUELS", invalid Output Variable or Meter Name="WATERSYSTEMS:DIESEL".
   **   ~~~   ** ...will not be shown with the Meter results.
   ** Warning ** Meter:Custom="WATERSYSTEMS:OTHERFUELS", invalid Output Variable or Meter Name="WATERSYSTEMS:GASOLINE".
   **   ~~~   ** ...will not be shown with the Meter results.
   ** Warning ** Meter:Custom="WATERSYSTEMS:OTHERFUELS", invalid Output Variable or Meter Name="WATERSYSTEMS:COAL".
   **   ~~~   ** ...will not be shown with the Meter results.
   ** Warning ** Meter:Custom="WATERSYSTEMS:OTHERFUELS", invalid Output Variable or Meter Name="WATERSYSTEMS:STEAM".
   **   ~~~   ** ...will not be shown with the Meter results.
   ** Warning ** Meter:Custom="WATERSYSTEMS:OTHERFUELS", no items assigned 
   **   ~~~   ** ...will not be shown with the Meter results. This may be caused by a Meter:Custom be assigned to another Meter:Custom.
   ** Warning ** Meter:Custom="INTERIOREQUIPMENT:OTHERFUELS", invalid Output Variable or Meter Name="INTERIOREQUIPMENT:FUELOIL#1".
   **   ~~~   ** ...will not be shown with the Meter results.
   ** Warning ** Meter:Custom="INTERIOREQUIPMENT:OTHERFUELS", invalid Output Variable or Meter Name="INTERIOREQUIPMENT:DIESEL".
   **   ~~~   ** ...will not be shown with the Meter results.
   ** Warning ** Meter:Custom="INTERIOREQUIPMENT:OTHERFUELS", invalid Output Variable or Meter Name="INTERIOREQUIPMENT:GASOLINE".
   **   ~~~   ** ...will not be shown with the Meter results.
   ** Warning ** Meter:Custom="INTERIOREQUIPMENT:OTHERFUELS", invalid Output Variable or Meter Name="INTERIOREQUIPMENT:COAL".
   **   ~~~   ** ...will not be shown with the Meter results.
   ** Warning ** Meter:Custom="INTERIOREQUIPMENT:OTHERFUELS", invalid Output Variable or Meter Name="INTERIOREQUIPMENT:STEAM".
   **   ~~~   ** ...will not be shown with the Meter results.
   ** Warning ** Meter:Custom="INTERIOREQUIPMENT:OTHERFUELS", no items assigned 
   **   ~~~   ** ...will not be shown with the Meter results. This may be caused by a Meter:Custom be assigned to another Meter:Custom.
   ** Warning ** Meter:Custom="OTHERFUELS:FACILITY", invalid Output Variable or Meter Name="HEATREJECTION:FUELOIL#1".
   **   ~~~   ** ...will not be shown with the Meter results.
   ** Warning ** Meter:Custom="OTHERFUELS:FACILITY", invalid Output Variable or Meter Name="HEATREJECTION:DIESEL".
   **   ~~~   ** ...will not be shown with the Meter results.
   ** Warning ** Meter:Custom="OTHERFUELS:FACILITY", invalid Output Variable or Meter Name="HEATREJECTION:GASOLINE".
   **   ~~~   ** ...will not be shown with the Meter results.
   ** Warning ** Meter:Custom="OTHERFUELS:FACILITY", invalid Output Variable or Meter Name="HEATREJECTION:COAL".
   **   ~~~   ** ...will not be shown with the Meter results.
   ** Warning ** Meter:Custom="OTHERFUELS:FACILITY", invalid Output Variable or Meter Name="HEATREJECTION:STEAM".
   **   ~~~   ** ...will not be shown with the Meter results.
   ** Warning ** Meter:Custom="OTHERFUELS:FACILITY", invalid Output Variable or Meter Name="HEATING:FUELOIL#1".
   **   ~~~   ** ...will not be shown with the Meter results.
   ** Warning ** Meter:Custom="OTHERFUELS:FACILITY", invalid Output Variable or Meter Name="HEATING:DIESEL".
   **   ~~~   ** ...will not be shown with the Meter results.
   ** Warning ** Meter:Custom="OTHERFUELS:FACILITY", invalid Output Variable or Meter Name="HEATING:GASOLINE".
   **   ~~~   ** ...will not be shown with the Meter results.
   ** Warning ** Meter:Custom="OTHERFUELS:FACILITY", invalid Output Variable or Meter Name="HEATING:COAL".
   **   ~~~   ** ...will not be shown with the Meter results.
   ** Warning ** Meter:Custom="OTHERFUELS:FACILITY", invalid Output Variable or Meter Name="HEATING:STEAM".
   **   ~~~   ** ...will not be shown with the Meter results.
   ** Warning ** Meter:Custom="OTHERFUELS:FACILITY", invalid Output Variable or Meter Name="WATERSYSTEMS:FUELOIL#1".
   **   ~~~   ** ...will not be shown with the Meter results.
   ** Warning ** Meter:Custom="OTHERFUELS:FACILITY", invalid Output Variable or Meter Name="WATERSYSTEMS:DIESEL".
   **   ~~~   ** ...will not be shown with the Meter results.
   ** Warning ** Meter:Custom="OTHERFUELS:FACILITY", invalid Output Variable or Meter Name="WATERSYSTEMS:GASOLINE".
   **   ~~~   ** ...will not be shown with the Meter results.
   ** Warning ** Meter:Custom="OTHERFUELS:FACILITY", invalid Output Variable or Meter Name="WATERSYSTEMS:COAL".
   **   ~~~   ** ...will not be shown with the Meter results.
   ** Warning ** Meter:Custom="OTHERFUELS:FACILITY", invalid Output Variable or Meter Name="WATERSYSTEMS:STEAM".
   **   ~~~   ** ...will not be shown with the Meter results.
   ** Warning ** Meter:Custom="OTHERFUELS:FACILITY", invalid Output Variable or Meter Name="INTERIOREQUIPMENT:FUELOIL#1".
   **   ~~~   ** ...will not be shown with the Meter results.
   ** Warning ** Meter:Custom="OTHERFUELS:FACILITY", invalid Output Variable or Meter Name="INTERIOREQUIPMENT:DIESEL".
   **   ~~~   ** ...will not be shown with the Meter results.
   ** Warning ** Meter:Custom="OTHERFUELS:FACILITY", invalid Output Variable or Meter Name="INTERIOREQUIPMENT:GASOLINE".
   **   ~~~   ** ...will not be shown with the Meter results.
   ** Warning ** Meter:Custom="OTHERFUELS:FACILITY", invalid Output Variable or Meter Name="INTERIOREQUIPMENT:COAL".
   **   ~~~   ** ...will not be shown with the Meter results.
   ** Warning ** Meter:Custom="OTHERFUELS:FACILITY", invalid Output Variable or Meter Name="INTERIOREQUIPMENT:STEAM".
   **   ~~~   ** ...will not be shown with the Meter results.
   ** Warning ** Meter:Custom="OTHERFUELS:FACILITY", no items assigned 
   **   ~~~   ** ...will not be shown with the Meter results. This may be caused by a Meter:Custom be assigned to another Meter:Custom.
   ** Warning ** Output:Meter: invalid Key Name="HEATING:FUELOILNO2" - not found.
   ** Warning ** Output:Meter: invalid Key Name="HEATING:PROPANE" - not found.
   ** Warning ** Output:Meter: invalid Key Name="HEATING:DISTRICTCOOLING" - not found.
   ** Warning ** Output:Meter: invalid Key Name="HEATING:DISTRICTHEATING" - not found.
   ** Warning ** Output:Meter: invalid Key Name="HEATING:WATER" - not found.
   ** Warning ** Output:Meter: invalid Key Name="COOLING:NATURALGAS" - not found.
   ** Warning ** Output:Meter: invalid Key Name="COOLING:FUELOILNO2" - not found.
   ** Warning ** Output:Meter: invalid Key Name="COOLING:PROPANE" - not found.
   ** Warning ** Output:Meter: invalid Key Name="COOLING:DISTRICTCOOLING" - not found.
   ** Warning ** Output:Meter: invalid Key Name="COOLING:DISTRICTHEATING" - not found.
   ** Warning ** Output:Meter: invalid Key Name="COOLING:WATER" - not found.
   ** Warning ** Output:Meter: invalid Key Name="INTERIORLIGHTS:NATURALGAS" - not found.
   ** Warning ** Output:Meter: invalid Key Name="INTERIORLIGHTS:FUELOILNO2" - not found.
   ** Warning ** Output:Meter: invalid Key Name="INTERIORLIGHTS:PROPANE" - not found.
   ** Warning ** Output:Meter: invalid Key Name="INTERIORLIGHTS:DISTRICTCOOLING" - not found.
   ** Warning ** Output:Meter: invalid Key Name="INTERIORLIGHTS:DISTRICTHEATING" - not found.
   ** Warning ** Output:Meter: invalid Key Name="INTERIORLIGHTS:WATER" - not found.
   ** Warning ** Output:Meter: invalid Key Name="EXTERIORLIGHTS:NATURALGAS" - not found.
   ** Warning ** Output:Meter: invalid Key Name="EXTERIORLIGHTS:FUELOILNO2" - not found.
   ** Warning ** Output:Meter: invalid Key Name="EXTERIORLIGHTS:PROPANE" - not found.
   ** Warning ** Output:Meter: invalid Key Name="EXTERIORLIGHTS:DISTRICTCOOLING" - not found.
   ** Warning ** Output:Meter: invalid Key Name="EXTERIORLIGHTS:DISTRICTHEATING" - not found.
   ** Warning ** Output:Meter: invalid Key Name="EXTERIORLIGHTS:WATER" - not found.
   ** Warning ** Output:Meter: invalid Key Name="INTERIOREQUIPMENT:FUELOILNO2" - not found.
   ** Warning ** Output:Meter: invalid Key Name="INTERIOREQUIPMENT:PROPANE" - not found.
   ** Warning ** Output:Meter: invalid Key Name="INTERIOREQUIPMENT:DISTRICTCOOLING" - not found.
   ** Warning ** Output:Meter: invalid Key Name="INTERIOREQUIPMENT:DISTRICTHEATING" - not found.
   ** Warning ** Output:Meter: invalid Key Name="INTERIOREQUIPMENT:WATER" - not found.
   ** Warning ** Output:Meter: invalid Key Name="EXTERIOREQUIPMENT:ELECTRICITY" - not found.
   ** Warning ** Output:Meter: invalid Key Name="EXTERIOREQUIPMENT:NATURALGAS" - not found.
   ** Warning ** Output:Meter: invalid Key Name="EXTERIOREQUIPMENT:FUELOILNO2" - not found.
   ** Warning ** Output:Meter: invalid Key Name="EXTERIOREQUIPMENT:PROPANE" - not found.
   ** Warning ** Output:Meter: invalid Key Name="EXTERIOREQUIPMENT:DISTRICTCOOLING" - not found.
   ** Warning ** Output:Meter: invalid Key Name="EXTERIOREQUIPMENT:DISTRICTHEATING" - not found.
   ** Warning ** Output:Meter: invalid Key Name="EXTERIOREQUIPMENT:WATER" - not found.
   ** Warning ** Output:Meter: invalid Key Name="FANS:NATURALGAS" - not found.
   ** Warning ** Output:Meter: invalid Key Name="FANS:FUELOILNO2" - not found.
   ** Warning ** Output:Meter: invalid Key Name="FANS:PROPANE" - not found.
   ** Warning ** Output:Meter: invalid Key Name="FANS:DISTRICTCOOLING" - not found.
   ** Warning ** Output:Meter: invalid Key Name="FANS:DISTRICTHEATING" - not found.
   ** Warning ** Output:Meter: invalid Key Name="FANS:WATER" - not found.
   ** Warning ** Output:Meter: invalid Key Name="PUMPS:NATURALGAS" - not found.
   ** Warning ** Output:Meter: invalid Key Name="PUMPS:FUELOILNO2" - not found.
   ** Warning ** Output:Meter: invalid Key Name="PUMPS:PROPANE" - not found.
   ** Warning ** Output:Meter: invalid Key Name="PUMPS:DISTRICTCOOLING" - not found.
   ** Warning ** Output:Meter: invalid Key Name="PUMPS:DISTRICTHEATING" - not found.
   ** Warning ** Output:Meter: invalid Key Name="PUMPS:WATER" - not found.
   ** Warning ** Output:Meter: invalid Key Name="HEATREJECTION:NATURALGAS" - not found.
   ** Warning ** Output:Meter: invalid Key Name="HEATREJECTION:FUELOILNO2" - not found.
   ** Warning ** Output:Meter: invalid Key Name="HEATREJECTION:PROPANE" - not found.
   ** Warning ** Output:Meter: invalid Key Name="HEATREJECTION:DISTRICTCOOLING" - not found.
   ** Warning ** Output:Meter: invalid Key Name="HEATREJECTION:DISTRICTHEATING" - not found.
   ** Warning ** Output:Meter: invalid Key Name="HUMIDIFIER:ELECTRICITY" - not found.
   ** Warning ** Output:Meter: invalid Key Name="HUMIDIFIER:NATURALGAS" - not found.
   ** Warning ** Output:Meter: invalid Key Name="HUMIDIFIER:FUELOILNO2" - not found.
   ** Warning ** Output:Meter: invalid Key Name="HUMIDIFIER:PROPANE" - not found.
   ** Warning ** Output:Meter: invalid Key Name="HUMIDIFIER:DISTRICTCOOLING" - not found.
   ** Warning ** Output:Meter: invalid Key Name="HUMIDIFIER:DISTRICTHEATING" - not found.
   ** Warning ** Output:Meter: invalid Key Name="HUMIDIFIER:WATER" - not found.
   ** Warning ** Output:Meter: invalid Key Name="HEATRECOVERY:ELECTRICITY" - not found.
   ** Warning ** Output:Meter: invalid Key Name="HEATRECOVERY:NATURALGAS" - not found.
   ** Warning ** Output:Meter: invalid Key Name="HEATRECOVERY:FUELOILNO2" - not found.
   ** Warning ** Output:Meter: invalid Key Name="HEATRECOVERY:PROPANE" - not found.
   ** Warning ** Output:Meter: invalid Key Name="HEATRECOVERY:DISTRICTCOOLING" - not found.
   ** Warning ** Output:Meter: invalid Key Name="HEATRECOVERY:DISTRICTHEATING" - not found.
   ** Warning ** Output:Meter: invalid Key Name="HEATRECOVERY:WATER" - not found.
   ** Warning ** Output:Meter: invalid Key Name="WATERSYSTEMS:ELECTRICITY" - not found.
   ** Warning ** Output:Meter: invalid Key Name="WATERSYSTEMS:FUELOILNO2" - not found.
   ** Warning ** Output:Meter: invalid Key Name="WATERSYSTEMS:PROPANE" - not found.
   ** Warning ** Output:Meter: invalid Key Name="WATERSYSTEMS:DISTRICTCOOLING" - not found.
   ** Warning ** Output:Meter: invalid Key Name="WATERSYSTEMS:DISTRICTHEATING" - not found.
   ** Warning ** Output:Meter: invalid Key Name="REFRIGERATION:ELECTRICITY" - not found.
   ** Warning ** Output:Meter: invalid Key Name="REFRIGERATION:NATURALGAS" - not found.
   ** Warning ** Output:Meter: invalid Key Name="REFRIGERATION:FUELOILNO2" - not found.
   ** Warning ** Output:Meter: invalid Key Name="REFRIGERATION:PROPANE" - not found.
   ** Warning ** Output:Meter: invalid Key Name="REFRIGERATION:DISTRICTCOOLING" - not found.
   ** Warning ** Output:Meter: invalid Key Name="REFRIGERATION:DISTRICTHEATING" - not found.
   ** Warning ** Output:Meter: invalid Key Name="REFRIGERATION:WATER" - not found.
   ** Warning ** Output:Meter: invalid Key Name="GENERATORS:ELECTRICITY" - not found.
   ** Warning ** Output:Meter: invalid Key Name="GENERATORS:NATURALGAS" - not found.
   ** Warning ** Output:Meter: invalid Key Name="GENERATORS:FUELOILNO2" - not found.
   ** Warning ** Output:Meter: invalid Key Name="GENERATORS:PROPANE" - not found.
   ** Warning ** Output:Meter: invalid Key Name="GENERATORS:DISTRICTCOOLING" - not found.
   ** Warning ** Output:Meter: invalid Key Name="GENERATORS:DISTRICTHEATING" - not found.
   ** Warning ** Output:Meter: invalid Key Name="GENERATORS:WATER" - not found.
   ** Warning ** Output:Meter: invalid Key Name="FUELOILNO2:FACILITY" - not found.
   ** Warning ** Output:Meter: invalid Key Name="PROPANE:FACILITY" - not found.
   ** Warning ** Output:Meter: invalid Key Name="DISTRICTCOOLING:FACILITY" - not found.
   ** Warning ** Output:Meter: invalid Key Name="DISTRICTHEATING:FACILITY" - not found.
   ** Warning ** Output:Meter: invalid Key Name="HEATREJECTION:FUELOIL#1" - not found.
   ** Warning ** Output:Meter: invalid Key Name="HEATREJECTION:DIESEL" - not found.
   ** Warning ** Output:Meter: invalid Key Name="HEATREJECTION:GASOLINE" - not found.
   ** Warning ** Output:Meter: invalid Key Name="HEATREJECTION:COAL" - not found.
   ** Warning ** Output:Meter: invalid Key Name="HEATREJECTION:STEAM" - not found.
   ** Warning ** Output:Meter: invalid Key Name="HEATREJECTION:OTHERFUELS" - not found.
   ** Warning ** Output:Meter: invalid Key Name="HEATING:FUELOIL#1" - not found.
   ** Warning ** Output:Meter: invalid Key Name="HEATING:DIESEL" - not found.
   ** Warning ** Output:Meter: invalid Key Name="HEATING:GASOLINE" - not found.
   ** Warning ** Output:Meter: invalid Key Name="HEATING:COAL" - not found.
   ** Warning ** Output:Meter: invalid Key Name="HEATING:STEAM" - not found.
   ** Warning ** Output:Meter: invalid Key Name="HEATING:OTHERFUELS" - not found.
   ** Warning ** Output:Meter: invalid Key Name="WATERSYSTEMS:FUELOIL#1" - not found.
   ** Warning ** Output:Meter: invalid Key Name="WATERSYSTEMS:DIESEL" - not found.
   ** Warning ** Output:Meter: invalid Key Name="WATERSYSTEMS:GASOLINE" - not found.
   ** Warning ** Output:Meter: invalid Key Name="WATERSYSTEMS:COAL" - not found.
   ** Warning ** Output:Meter: invalid Key Name="WATERSYSTEMS:STEAM" - not found.
   ** Warning ** Output:Meter: invalid Key Name="WATERSYSTEMS:OTHERFUELS" - not found.
   ** Warning ** Output:Meter: invalid Key Name="INTERIOREQUIPMENT:FUELOIL#1" - not found.
   ** Warning ** Output:Meter: invalid Key Name="INTERIOREQUIPMENT:DIESEL" - not found.
   ** Warning ** Output:Meter: invalid Key Name="INTERIOREQUIPMENT:GASOLINE" - not found.
   ** Warning ** Output:Meter: invalid Key Name="INTERIOREQUIPMENT:COAL" - not found.
   ** Warning ** Output:Meter: invalid Key Name="INTERIOREQUIPMENT:STEAM" - not found.
   ** Warning ** Output:Meter: invalid Key Name="INTERIOREQUIPMENT:OTHERFUELS" - not found.
   ** Warning ** Output:Meter: invalid Key Name="OTHERFUELS:FACILITY" - not found.
   ** Warning ** Output:Meter:MeterFileOnly requested for "Electricity:Facility" (TimeStep), already on "Output:Meter". Will report to both eplusout.eso and eplusout.mtr
   ** Warning ** Output:Meter:MeterFileOnly: invalid Key Name="ELECTRICITYPRODUCED:FACILITY" - not found.
   ** Warning ** Output:Meter:MeterFileOnly: invalid Key Name="GAS:FACILITY" - not found.