Program Version,EnergyPlus, Version 9.4.0-998c4b761e, YMD=2021.04.05 22:23
! <Version>, Version ID
 Version, 9.4
! <Timesteps per Hour>, #TimeSteps, Minutes per TimeStep {minutes}
 Timesteps per Hour,  1, 60
! <System Convergence Limits>, Minimum System TimeStep {minutes}, Max HVAC Iterations, Minimum Plant Iterations, Maximum Plant Iterations
 System Convergence Limits, 1, 20, 2, 8
! <Simulation Control>, Do Zone Sizing, Do System Sizing, Do Plant Sizing, Do Design Days, Do Weather Simulation, Do HVAC Sizing Simulation
 Simulation Control, Yes, Yes, Yes, No, Yes, No
! <Performance Precision Tradeoffs>, Use Coil Direct Simulation, Zone Radiant Exchange Algorithm, Override Mode, Number of Timestep In Hour, Force Euler Method, Minimum Number of Warmup Days, Force Suppress All Begin Environment Resets, Minimum System Timestep, MaxZoneTempDiff, MaxAllowedDelTemp
 Performance Precision Tradeoffs, No, ScriptF, Normal, 1, No, 1, No, 1.0, 0.300, 2.0000E-003
! <Output Reporting Tolerances>, Tolerance for Time Heating Setpoint Not Met, Tolerance for Zone Cooling Setpoint Not Met Time
 Output Reporting Tolerances, 0.200, 0.200, 
! <Site:GroundTemperature:BuildingSurface>,Jan{C},Feb{C},Mar{C},Apr{C},May{C},Jun{C},Jul{C},Aug{C},Sep{C},Oct{C},Nov{C},Dec{C}
 Site:GroundTemperature:BuildingSurface,  19.69,  19.64,  19.84,  20.08,  20.32,  21.37,  21.66,  21.71,  21.65,  20.55,  20.21,  19.87
! <Site:GroundTemperature:FCfactorMethod>,Jan{C},Feb{C},Mar{C},Apr{C},May{C},Jun{C},Jul{C},Aug{C},Sep{C},Oct{C},Nov{C},Dec{C}
 Site:GroundTemperature:FCfactorMethod,  -2.87,  -0.64,   3.71,   7.83,  15.62,  19.72,  20.85,  18.77,  13.96,   7.98,   2.08,  -1.81
! <Site:GroundTemperature:Shallow>,Jan{C},Feb{C},Mar{C},Apr{C},May{C},Jun{C},Jul{C},Aug{C},Sep{C},Oct{C},Nov{C},Dec{C}
 Site:GroundTemperature:Shallow,  13.00,  13.00,  13.00,  13.00,  13.00,  13.00,  13.00,  13.00,  13.00,  13.00,  13.00,  13.00
! <Site:GroundTemperature:Deep>,Jan{C},Feb{C},Mar{C},Apr{C},May{C},Jun{C},Jul{C},Aug{C},Sep{C},Oct{C},Nov{C},Dec{C}
 Site:GroundTemperature:Deep,  16.00,  16.00,  16.00,  16.00,  16.00,  16.00,  16.00,  16.00,  16.00,  16.00,  16.00,  16.00
! <Site:GroundReflectance>,Jan{dimensionless},Feb{dimensionless},Mar{dimensionless},Apr{dimensionless},May{dimensionless},Jun{dimensionless},Jul{dimensionless},Aug{dimensionless},Sep{dimensionless},Oct{dimensionless},Nov{dimensionless},Dec{dimensionless}
 Site:GroundReflectance,  0.20,  0.20,  0.20,  0.20,  0.20,  0.20,  0.20,  0.20,  0.20,  0.20,  0.20,  0.20
! <Site:GroundReflectance:SnowModifier>, Normal, Daylighting {dimensionless}
 Site:GroundReflectance:SnowModifier,   1.000,   1.000
! <Site:GroundReflectance:Snow>,Jan{dimensionless},Feb{dimensionless},Mar{dimensionless},Apr{dimensionless},May{dimensionless},Jun{dimensionless},Jul{dimensionless},Aug{dimensionless},Sep{dimensionless},Oct{dimensionless},Nov{dimensionless},Dec{dimensionless}
 Site:GroundReflectance:Snow,  0.20,  0.20,  0.20,  0.20,  0.20,  0.20,  0.20,  0.20,  0.20,  0.20,  0.20,  0.20
! <Site:GroundReflectance:Snow:Daylighting>,Jan{dimensionless},Feb{dimensionless},Mar{dimensionless},Apr{dimensionless},May{dimensionless},Jun{dimensionless},Jul{dimensionless},Aug{dimensionless},Sep{dimensionless},Oct{dimensionless},Nov{dimensionless},Dec{dimensionless}
 Site:GroundReflectance:Snow:Daylighting,  0.20,  0.20,  0.20,  0.20,  0.20,  0.20,  0.20,  0.20,  0.20,  0.20,  0.20,  0.20
! <Environment:Weather Station>,Wind Sensor Height Above Ground {m},Wind Speed Profile Exponent {},Wind Speed Profile Boundary Layer Thickness {m},Air Temperature Sensor Height Above Ground {m},Wind Speed Modifier Coefficient-Internal,Temperature Modifier Coefficient-Internal
Environment:Weather Station,10.000,0.140,270.000,1.500,1.586,9.750E-003
! <Site:Location>, Location Name, Latitude {N+/S- Deg}, Longitude {E+/W- Deg},  Time Zone Number {GMT+/-}, Elevation {m},  Standard Pressure at Elevation {Pa}, Standard RhoAir at Elevation
Site:Location,Buffalo Niagara Intl Ap NY USA TMY3 WMO#=725280,42.93,-78.73,-5.00,215.00,98769,1.1739
! <Site Water Mains Temperature Information>,Calculation Method{},Water Mains Temperature Schedule Name{},Annual Average Outdoor Air Temperature{C},Maximum Difference In Monthly Average Outdoor Air Temperatures{deltaC},Fixed Default Water Mains Temperature{C}
Site Water Mains Temperature Information,Correlation,NA,8.97,26.20,NA
! <Building Information>, Building Name,North Axis {deg},Terrain,  Loads Convergence Tolerance Value,Temperature Convergence Tolerance Value,  Solar Distribution,Maximum Number of Warmup Days,Minimum Number of Warmup Days
 Building Information,Hospital 1,0.000,City,4.00000E-002,0.40000,FullExterior,25,1
! <Inside Convection Algorithm>, Algorithm {Simple | TARP | CeilingDiffuser | AdaptiveConvectionAlgorithm}
Inside Convection Algorithm,TARP
! <Outside Convection Algorithm>, Algorithm {SimpleCombined | TARP | MoWitt | DOE-2 | AdaptiveConvectionAlgorithm}
Outside Convection Algorithm,DOE-2
! <Sky Radiance Distribution>, Value {Anisotropic}
Sky Radiance Distribution,Anisotropic
! <Zone Air Solution Algorithm>, Value {ThirdOrderBackwardDifference | AnalyticalSolution | EulerMethod}
 Zone Air Solution Algorithm, ThirdOrderBackwardDifference
! <Zone Air Carbon Dioxide Balance Simulation>, Simulation {Yes/No}, Carbon Dioxide Concentration
 Zone Air Carbon Dioxide Balance Simulation, No,N/A
! <Zone Air Generic Contaminant Balance Simulation>, Simulation {Yes/No}, Generic Contaminant Concentration
 Zone Air Generic Contaminant Balance Simulation, No,N/A
! <Zone Air Mass Flow Balance Simulation>, Enforce Mass Balance, Adjust Zone Mixing, Adjust Zone Infiltration {AddInfiltration | AdjustInfiltration | None}, Infiltration Zones {MixingSourceZonesOnly | AllZones}
 Zone Air Mass Flow Balance Simulation, No,N/A,N/A,N/A
! <HVACSystemRootFindingAlgorithm>, Value {RegulaFalsi | Bisection | BisectionThenRegulaFalsi | RegulaFalsiThenBisection}
 HVACSystemRootFindingAlgorithm, RegulaFalsi
! <Environment:Site Atmospheric Variation>,Wind Speed Profile Exponent {},Wind Speed Profile Boundary Layer Thickness {m},Air Temperature Gradient Coefficient {K/m}
Environment:Site Atmospheric Variation,0.330,460.000,6.500000E-003
! <Surface Geometry>,Starting Corner,Vertex Input Direction,Coordinate System,Daylight Reference Point Coordinate System,Rectangular (Simple) Surface Coordinate System
 Surface Geometry,UpperLeftCorner,Counterclockwise,RelativeCoordinateSystem,RelativeCoordinateSystem,RelativeToZoneOrigin
! <Surface Heat Transfer Algorithm>, Value {CTF - ConductionTransferFunction | EMPD - MoisturePenetrationDepthConductionTransferFunction | CondFD - ConductionFiniteDifference | HAMT - CombinedHeatAndMoistureFiniteElement} - Description,Inside Surface Max Temperature Limit{C}, Surface Convection Coefficient Lower Limit {W/m2-K}, Surface Convection Coefficient Upper Limit {W/m2-K}
Surface Heat Transfer Algorithm, CTF - ConductionTransferFunction,200,0.10,1000.0
! <Shading Summary>, Number of Fixed Detached Shades, Number of Building Detached Shades, Number of Attached Shades
 Shading Summary,0,64,0
! <Zone Summary>, Number of Zones, Number of Zone Surfaces, Number of SubSurfaces
 Zone Summary,10,140,60
! <Zone Information>,Zone Name,North Axis {deg},Origin X-Coordinate {m},Origin Y-Coordinate {m},Origin Z-Coordinate {m},Centroid X-Coordinate {m},Centroid Y-Coordinate {m},Centroid Z-Coordinate {m},Type,Zone Multiplier,Zone List Multiplier,Minimum X {m},Maximum X {m},Minimum Y {m},Maximum Y {m},Minimum Z {m},Maximum Z {m},Ceiling Height {m},Volume {m3},Zone Inside Convection Algorithm {Simple-Detailed-CeilingDiffuser-TrombeWall},Zone Outside Convection Algorithm {Simple-Detailed-Tarp-MoWitt-DOE-2-BLAST}, Floor Area {m2},Exterior Gross Wall Area {m2},Exterior Net Wall Area {m2},Exterior Window Area {m2}, Number of Surfaces, Number of SubSurfaces, Number of Shading SubSurfaces,  Part of Total Building Area
 Zone Information, BUILDING STORY 1 THERMALZONE,0.0,0.00,0.00,0.00,38.87,47.01,1.50,1,1,1,2.83E-011,85.29,3.99E-005,76.73,0.00,3.00,3.00,11231.53,TARP,DOE-2,3743.84,834.22,583.95,250.27,8,6,0,Yes
 Zone Information, BUILDING STORY 10 THERMALZONE,0.0,0.00,0.00,0.00,38.87,47.01,28.50,1,1,1,2.83E-011,85.29,3.99E-005,76.73,27.00,30.00,3.00,11231.53,TARP,DOE-2,3743.84,834.22,583.95,250.27,8,6,0,Yes
 Zone Information, BUILDING STORY 2 THERMALZONE,0.0,0.00,0.00,0.00,38.87,47.01,4.50,1,1,1,2.83E-011,85.29,3.99E-005,76.73,3.00,6.00,3.00,11231.53,TARP,DOE-2,3743.84,834.22,583.95,250.27,8,6,0,Yes
 Zone Information, BUILDING STORY 3 THERMALZONE,0.0,0.00,0.00,0.00,38.87,47.01,7.50,1,1,1,2.83E-011,85.29,3.99E-005,76.73,6.00,9.00,3.00,11231.53,TARP,DOE-2,3743.84,834.22,583.95,250.27,8,6,0,Yes
 Zone Information, BUILDING STORY 4 THERMALZONE,0.0,0.00,0.00,0.00,38.87,47.01,10.50,1,1,1,2.83E-011,85.29,3.99E-005,76.73,9.00,12.00,3.00,11231.53,TARP,DOE-2,3743.84,834.22,583.95,250.27,8,6,0,Yes
 Zone Information, BUILDING STORY 5 THERMALZONE,0.0,0.00,0.00,0.00,38.87,47.01,13.50,1,1,1,2.83E-011,85.29,3.99E-005,76.73,12.00,15.00,3.00,11231.53,TARP,DOE-2,3743.84,834.22,583.95,250.27,8,6,0,Yes
 Zone Information, BUILDING STORY 6 THERMALZONE,0.0,0.00,0.00,0.00,38.87,47.01,16.50,1,1,1,2.83E-011,85.29,3.99E-005,76.73,15.00,18.00,3.00,11231.53,TARP,DOE-2,3743.84,834.22,583.95,250.27,8,6,0,Yes
 Zone Information, BUILDING STORY 7 THERMALZONE,0.0,0.00,0.00,0.00,38.87,47.01,19.50,1,1,1,2.83E-011,85.29,3.99E-005,76.73,18.00,21.00,3.00,11231.53,TARP,DOE-2,3743.84,834.22,583.95,250.27,8,6,0,Yes
 Zone Information, BUILDING STORY 8 THERMALZONE,0.0,0.00,0.00,0.00,38.87,47.01,22.50,1,1,1,2.83E-011,85.29,3.99E-005,76.73,21.00,24.00,3.00,11231.53,TARP,DOE-2,3743.84,834.22,583.95,250.27,8,6,0,Yes
 Zone Information, BUILDING STORY 9 THERMALZONE,0.0,0.00,0.00,0.00,38.87,47.01,25.50,1,1,1,2.83E-011,85.29,3.99E-005,76.73,24.00,27.00,3.00,11231.53,TARP,DOE-2,3743.84,834.22,583.95,250.27,8,6,0,Yes
! <Zone Internal Gains Nominal>,Zone Name, Floor Area {m2},# Occupants,Area per Occupant {m2/person},Occupant per Area {person/m2},Interior Lighting {W/m2},Electric Load {W/m2},Gas Load {W/m2},Other Load {W/m2},Hot Water Eq {W/m2},Steam Equipment {W/m2},Sum Loads per Area {W/m2},Outdoor Controlled Baseboard Heat
 Zone Internal Gains Nominal, BUILDING STORY 1 THERMALZONE,3743.84,396.2,9.449,0.106,9.293,15.557,0.000,0.000,0.000,0.000,24.850,No
 Zone Internal Gains Nominal, BUILDING STORY 10 THERMALZONE,3743.84,0.0,N/A,0.000,9.688,3.444,0.000,0.000,0.000,0.000,13.132,No
 Zone Internal Gains Nominal, BUILDING STORY 2 THERMALZONE,3743.84,1046.6,3.577,0.280,10.871,147.207,0.000,0.000,0.000,0.000,158.078,No
 Zone Internal Gains Nominal, BUILDING STORY 3 THERMALZONE,3743.84,215.2,17.395,5.749E-002,9.978,3.331,0.000,0.000,0.000,0.000,13.309,No
 Zone Internal Gains Nominal, BUILDING STORY 4 THERMALZONE,3743.84,742.2,5.044,0.198,10.100,39.715,17.295,0.000,0.000,0.000,67.110,No
 Zone Internal Gains Nominal, BUILDING STORY 5 THERMALZONE,3743.84,201.5,18.581,5.382E-002,10.656,9.472,0.000,0.000,0.000,0.000,20.129,No
 Zone Internal Gains Nominal, BUILDING STORY 6 THERMALZONE,3743.84,966.5,3.874,0.258,12.124,14.728,11.133,0.000,0.000,0.000,37.984,No
 Zone Internal Gains Nominal, BUILDING STORY 7 THERMALZONE,3743.84,181.5,20.629,4.848E-002,10.560,8.874,0.000,0.000,0.000,0.000,19.434,No
 Zone Internal Gains Nominal, BUILDING STORY 8 THERMALZONE,3743.84,750.0,4.992,0.200,14.168,9.472,0.000,0.000,0.000,0.000,23.640,No
 Zone Internal Gains Nominal, BUILDING STORY 9 THERMALZONE,3743.84,0.0,N/A,0.000,9.688,3.444,0.000,0.000,0.000,0.000,13.132,No
! <People Internal Gains Nominal>,Name,Schedule Name,Zone Name,Zone Floor Area {m2},# Zone Occupants,Number of People {},People/Floor Area {person/m2},Floor Area per person {m2/person},Fraction Radiant,Fraction Convected,Sensible Fraction Calculation,Activity level,ASHRAE 55 Warnings,Carbon Dioxide Generation Rate,Nominal Minimum Number of People,Nominal Maximum Number of People
 People Internal Gains Nominal, BUILDING STORY 2 THERMALZONE OUTPATIENT ANESTHESIA PEOPLE 1,OUTPATIENTHEALTHCARE BLDG_OCC_SCH,BUILDING STORY 2 THERMALZONE,3743.84,1046.6,22.9,6.113E-003,163.578,0.300,0.700,AutoCalculate,OUTPATIENTHEALTHCARE ACTIVITY_SCH,No,3.8200E-008,0,21
 People Internal Gains Nominal, BUILDING STORY 2 THERMALZONE OUTPATIENT CAFE PEOPLE 1,OUTPATIENTHEALTHCARE BLDG_OCC_SCH,BUILDING STORY 2 THERMALZONE,3743.84,1046.6,452.4,0.121,8.276,0.300,0.700,AutoCalculate,OUTPATIENTHEALTHCARE ACTIVITY_SCH,No,3.8200E-008,0,407
 People Internal Gains Nominal, BUILDING STORY 2 THERMALZONE OUTPATIENT CLEANWORK PEOPLE 1,OUTPATIENTHEALTHCARE BLDG_OCC_SCH,BUILDING STORY 2 THERMALZONE,3743.84,1046.6,62.5,1.669E-002,59.902,0.300,0.700,AutoCalculate,OUTPATIENTHEALTHCARE ACTIVITY_SCH,No,3.8200E-008,0,56
 People Internal Gains Nominal, BUILDING STORY 2 THERMALZONE OUTPATIENT CONFERENCE PEOPLE 1,OUTPATIENTHEALTHCARE BLDG_OCC_SCH,BUILDING STORY 2 THERMALZONE,3743.84,1046.6,180.1,4.810E-002,20.788,0.300,0.700,AutoCalculate,OUTPATIENTHEALTHCARE ACTIVITY_SCH,No,3.8200E-008,0,162
 People Internal Gains Nominal, BUILDING STORY 2 THERMALZONE OUTPATIENT IT_ROOM PEOPLE 1,OUTPATIENTHEALTHCARE BLDG_OCC_SCH,BUILDING STORY 2 THERMALZONE,3743.84,1046.6,5.9,1.586E-003,630.708,0.300,0.700,AutoCalculate,OUTPATIENTHEALTHCARE ACTIVITY_SCH,No,3.8200E-008,0,5
 People Internal Gains Nominal, BUILDING STORY 2 THERMALZONE OUTPATIENT MRI PEOPLE 1,OUTPATIENTHEALTHCARE BLDG_OCC_SCH,BUILDING STORY 2 THERMALZONE,3743.84,1046.6,94.2,2.516E-002,39.748,0.300,0.700,AutoCalculate,OUTPATIENTHEALTHCARE ACTIVITY_SCH,No,3.8200E-008,0,85
 People Internal Gains Nominal, BUILDING STORY 2 THERMALZONE OUTPATIENT MRI_CONTROL PEOPLE 1,OUTPATIENTHEALTHCARE BLDG_OCC_SCH,BUILDING STORY 2 THERMALZONE,3743.84,1046.6,36.1,9.640E-003,103.732,0.300,0.700,AutoCalculate,OUTPATIENTHEALTHCARE ACTIVITY_SCH,No,3.8200E-008,0,32
 People Internal Gains Nominal, BUILDING STORY 2 THERMALZONE OUTPATIENT PREOP PEOPLE 1,OUTPATIENTHEALTHCARE BLDG_OCC_SCH,BUILDING STORY 2 THERMALZONE,3743.84,1046.6,53.4,1.427E-002,70.079,0.300,0.700,AutoCalculate,OUTPATIENTHEALTHCARE ACTIVITY_SCH,No,3.8200E-008,0,48
 People Internal Gains Nominal, BUILDING STORY 2 THERMALZONE OUTPATIENT PROCEDUREROOM PEOPLE 1,OUTPATIENTHEALTHCARE BLDG_OCC_SCH,BUILDING STORY 2 THERMALZONE,3743.84,1046.6,61.6,1.646E-002,60.758,0.300,0.700,AutoCalculate,OUTPATIENTHEALTHCARE ACTIVITY_SCH,No,3.8200E-008,0,55
 People Internal Gains Nominal, BUILDING STORY 2 THERMALZONE OUTPATIENT SOIL WORK PEOPLE 1,OUTPATIENTHEALTHCARE BLDG_OCC_SCH,BUILDING STORY 2 THERMALZONE,3743.84,1046.6,77.5,2.069E-002,48.330,0.300,0.700,AutoCalculate,OUTPATIENTHEALTHCARE ACTIVITY_SCH,No,3.8200E-008,0,70
 People Internal Gains Nominal, BUILDING STORY 1 THERMALZONE OUTPATIENT LOBBY PEOPLE 1,OUTPATIENTHEALTHCARE BLDG_OCC_SCH,BUILDING STORY 1 THERMALZONE,3743.84,396.2,66.8,1.785E-002,56.017,0.300,0.700,AutoCalculate,OUTPATIENTHEALTHCARE ACTIVITY_SCH,No,3.8200E-008,0,60
 People Internal Gains Nominal, BUILDING STORY 1 THERMALZONE OUTPATIENT LOCKERROOM PEOPLE 1,OUTPATIENTHEALTHCARE BLDG_OCC_SCH,BUILDING STORY 1 THERMALZONE,3743.84,396.2,125.4,3.349E-002,29.856,0.300,0.700,AutoCalculate,OUTPATIENTHEALTHCARE ACTIVITY_SCH,No,3.8200E-008,0,113
 People Internal Gains Nominal, BUILDING STORY 1 THERMALZONE OUTPATIENT NURSESTATION PEOPLE 1,OUTPATIENTHEALTHCARE BLDG_OCC_SCH,BUILDING STORY 1 THERMALZONE,3743.84,396.2,166.4,4.444E-002,22.503,0.300,0.700,AutoCalculate,OUTPATIENTHEALTHCARE ACTIVITY_SCH,No,3.8200E-008,0,150
 People Internal Gains Nominal, BUILDING STORY 1 THERMALZONE OUTPATIENT PREOP PEOPLE 2,OUTPATIENTHEALTHCARE BLDG_OCC_SCH,BUILDING STORY 1 THERMALZONE,3743.84,396.2,3.3,8.808E-004,1135.275,0.300,0.700,AutoCalculate,OUTPATIENTHEALTHCARE ACTIVITY_SCH,No,3.8200E-008,0,3
 People Internal Gains Nominal, BUILDING STORY 1 THERMALZONE OUTPATIENT XRAY PEOPLE 1,OUTPATIENTHEALTHCARE BLDG_OCC_SCH,BUILDING STORY 1 THERMALZONE,3743.84,396.2,34.3,9.170E-003,109.052,0.300,0.700,AutoCalculate,OUTPATIENTHEALTHCARE ACTIVITY_SCH,No,3.8200E-008,0,31
 People Internal Gains Nominal, BUILDING STORY 4 THERMALZONE OUTPATIENT LOUNGE PEOPLE 1,OUTPATIENTHEALTHCARE BLDG_OCC_SCH,BUILDING STORY 4 THERMALZONE,3743.84,742.2,193.4,5.165E-002,19.360,0.300,0.700,AutoCalculate,OUTPATIENTHEALTHCARE ACTIVITY_SCH,No,3.8200E-008,0,174
 People Internal Gains Nominal, BUILDING STORY 4 THERMALZONE OUTPATIENT OR PEOPLE 1,OUTPATIENTHEALTHCARE BLDG_OCC_SCH,BUILDING STORY 4 THERMALZONE,3743.84,742.2,185.3,4.949E-002,20.204,0.300,0.700,AutoCalculate,OUTPATIENTHEALTHCARE ACTIVITY_SCH,No,3.8200E-008,0,167
 People Internal Gains Nominal, BUILDING STORY 4 THERMALZONE OUTPATIENT PACU PEOPLE 1,OUTPATIENTHEALTHCARE BLDG_OCC_SCH,BUILDING STORY 4 THERMALZONE,3743.84,742.2,204.2,5.455E-002,18.332,0.300,0.700,AutoCalculate,OUTPATIENTHEALTHCARE ACTIVITY_SCH,No,3.8200E-008,0,184
 People Internal Gains Nominal, BUILDING STORY 4 THERMALZONE OUTPATIENT XRAY PEOPLE 2,OUTPATIENTHEALTHCARE BLDG_OCC_SCH,BUILDING STORY 4 THERMALZONE,3743.84,742.2,159.3,4.256E-002,23.497,0.300,0.700,AutoCalculate,OUTPATIENTHEALTHCARE ACTIVITY_SCH,No,3.8200E-008,0,143
 People Internal Gains Nominal, BUILDING STORY 6 THERMALZONE OUTPATIENT OR PEOPLE 2,OUTPATIENTHEALTHCARE BLDG_OCC_SCH,BUILDING STORY 6 THERMALZONE,3743.84,966.5,119.3,3.186E-002,31.388,0.300,0.700,AutoCalculate,OUTPATIENTHEALTHCARE ACTIVITY_SCH,No,3.8200E-008,0,107
 People Internal Gains Nominal, BUILDING STORY 6 THERMALZONE OUTPATIENT PHYSICALTHERAPY PEOPLE 1,OUTPATIENTHEALTHCARE BLDG_OCC_SCH,BUILDING STORY 6 THERMALZONE,3743.84,966.5,366.2,9.781E-002,10.224,0.300,0.700,AutoCalculate,OUTPATIENTHEALTHCARE ACTIVITY_SCH,No,3.8200E-008,0,330
 People Internal Gains Nominal, BUILDING STORY 6 THERMALZONE OUTPATIENT RECEPTION PEOPLE 1,OUTPATIENTHEALTHCARE BLDG_OCC_SCH,BUILDING STORY 6 THERMALZONE,3743.84,966.5,481.0,0.128,7.784,0.300,0.700,AutoCalculate,OUTPATIENTHEALTHCARE ACTIVITY_SCH,No,3.8200E-008,0,433
 People Internal Gains Nominal, BUILDING STORY 3 THERMALZONE OUTPATIENT EXAM PEOPLE 1,OUTPATIENTHEALTHCARE BLDG_OCC_SCH,BUILDING STORY 3 THERMALZONE,3743.84,215.2,174.7,4.667E-002,21.426,0.300,0.700,AutoCalculate,OUTPATIENTHEALTHCARE ACTIVITY_SCH,No,3.8200E-008,0,157
 People Internal Gains Nominal, BUILDING STORY 3 THERMALZONE OUTPATIENT PHYSICALTHERAPY PEOPLE 2,OUTPATIENTHEALTHCARE BLDG_OCC_SCH,BUILDING STORY 3 THERMALZONE,3743.84,215.2,40.5,1.082E-002,92.457,0.300,0.700,AutoCalculate,OUTPATIENTHEALTHCARE ACTIVITY_SCH,No,3.8200E-008,0,36
 People Internal Gains Nominal, BUILDING STORY 8 THERMALZONE OUTPATIENT EXAM PEOPLE 2,OUTPATIENTHEALTHCARE BLDG_OCC_SCH,BUILDING STORY 8 THERMALZONE,3743.84,750.0,731.1,0.195,5.121,0.300,0.700,AutoCalculate,OUTPATIENTHEALTHCARE ACTIVITY_SCH,No,3.8200E-008,0,658
 People Internal Gains Nominal, BUILDING STORY 8 THERMALZONE OUTPATIENT OFFICE PEOPLE 1,OUTPATIENTHEALTHCARE BLDG_OCC_SCH,BUILDING STORY 8 THERMALZONE,3743.84,750.0,18.9,5.050E-003,198.013,0.300,0.700,AutoCalculate,OUTPATIENTHEALTHCARE ACTIVITY_SCH,No,3.8200E-008,0,17
 People Internal Gains Nominal, BUILDING STORY 5 THERMALZONE OUTPATIENT OFFICE PEOPLE 2,OUTPATIENTHEALTHCARE BLDG_OCC_SCH,BUILDING STORY 5 THERMALZONE,3743.84,201.5,201.5,5.382E-002,18.581,0.300,0.700,AutoCalculate,OUTPATIENTHEALTHCARE ACTIVITY_SCH,No,3.8200E-008,0,181
 People Internal Gains Nominal, BUILDING STORY 7 THERMALZONE OUTPATIENT OFFICE PEOPLE 3,OUTPATIENTHEALTHCARE BLDG_OCC_SCH,BUILDING STORY 7 THERMALZONE,3743.84,181.5,181.5,4.848E-002,20.629,0.300,0.700,AutoCalculate,OUTPATIENTHEALTHCARE ACTIVITY_SCH,No,3.8200E-008,0,163
! <Lights Internal Gains Nominal>,Name,Schedule Name,Zone Name,Zone Floor Area {m2},# Zone Occupants,Lighting Level {W},Lights/Floor Area {W/m2},Lights per person {W/person},Fraction Return Air,Fraction Radiant,Fraction Short Wave,Fraction Convected,Fraction Replaceable,End-Use Category,Nominal Minimum Lighting Level {W},Nominal Maximum Lighting Level {W}
 Lights Internal Gains Nominal, BUILDING STORY 2 THERMALZONE OUTPATIENT ANESTHESIA LIGHTS 1 10.0 PERCENT REDUCTION,OUTPATIENTHEALTHCARE BLDG_LIGHT_SCH,BUILDING STORY 2 THERMALZONE,3743.84,1046.6,1543.343,0.412,1.475,0.000,0.700,0.200,0.100,1.000,General,77.167,1389.009
 Lights Internal Gains Nominal, BUILDING STORY 2 THERMALZONE OUTPATIENT BIOHAZARD LIGHTS 1 10.0 PERCENT REDUCTION,OUTPATIENTHEALTHCARE BLDG_LIGHT_SCH,BUILDING STORY 2 THERMALZONE,3743.84,1046.6,498.619,0.133,0.476,0.000,0.700,0.200,0.100,1.000,General,24.931,448.757
 Lights Internal Gains Nominal, BUILDING STORY 2 THERMALZONE OUTPATIENT CAFE LIGHTS 1 10.0 PERCENT REDUCTION,OUTPATIENTHEALTHCARE BLDG_LIGHT_SCH,BUILDING STORY 2 THERMALZONE,3743.84,1046.6,3668.408,0.980,3.505,0.000,0.700,0.200,0.100,1.000,General,183.420,3301.567
 Lights Internal Gains Nominal, BUILDING STORY 2 THERMALZONE OUTPATIENT CLEANWORK LIGHTS 1 10.0 PERCENT REDUCTION,OUTPATIENTHEALTHCARE BLDG_LIGHT_SCH,BUILDING STORY 2 THERMALZONE,3743.84,1046.6,4214.514,1.126,4.027,0.000,0.700,0.200,0.100,1.000,General,210.726,3793.062
 Lights Internal Gains Nominal, BUILDING STORY 2 THERMALZONE OUTPATIENT CONFERENCE LIGHTS 1 10.0 PERCENT REDUCTION,OUTPATIENTHEALTHCARE BLDG_LIGHT_SCH,BUILDING STORY 2 THERMALZONE,3743.84,1046.6,4218.471,1.127,4.031,0.000,0.700,0.200,0.100,1.000,General,210.924,3796.624
 Lights Internal Gains Nominal, BUILDING STORY 2 THERMALZONE OUTPATIENT ELEC/MECHROOM LIGHTS 1 10.0 PERCENT REDUCTION,OUTPATIENTHEALTHCARE BLDG_LIGHT_STORAGE_SCH,BUILDING STORY 2 THERMALZONE,3743.84,1046.6,6470.169,1.728,6.182,0.000,0.700,0.200,0.100,1.000,General,323.508,5823.152
 Lights Internal Gains Nominal, BUILDING STORY 2 THERMALZONE OUTPATIENT IT_ROOM LIGHTS 1 10.0 PERCENT REDUCTION,OUTPATIENTHEALTHCARE BLDG_LIGHT_SCH,BUILDING STORY 2 THERMALZONE,3743.84,1046.6,1175.315,0.314,1.123,0.000,0.700,0.200,0.100,1.000,General,58.766,1057.784
 Lights Internal Gains Nominal, BUILDING STORY 2 THERMALZONE OUTPATIENT MEDGAS LIGHTS 1 10.0 PERCENT REDUCTION,OUTPATIENTHEALTHCARE BLDG_LIGHT_SCH,BUILDING STORY 2 THERMALZONE,3743.84,1046.6,498.619,0.133,0.476,0.000,0.700,0.200,0.100,1.000,General,24.931,448.757
 Lights Internal Gains Nominal, BUILDING STORY 2 THERMALZONE OUTPATIENT MRI LIGHTS 1 10.0 PERCENT REDUCTION,OUTPATIENTHEALTHCARE BLDG_LIGHT_SCH,BUILDING STORY 2 THERMALZONE,3743.84,1046.6,1693.720,0.452,1.618,0.000,0.700,0.200,0.100,1.000,General,84.686,1524.348
 Lights Internal Gains Nominal, BUILDING STORY 2 THERMALZONE OUTPATIENT MRI_CONTROL LIGHTS 1 10.0 PERCENT REDUCTION,OUTPATIENTHEALTHCARE BLDG_LIGHT_SCH,BUILDING STORY 2 THERMALZONE,3743.84,1046.6,648.996,0.173,0.620,0.000,0.700,0.200,0.100,1.000,General,32.450,584.096
 Lights Internal Gains Nominal, BUILDING STORY 2 THERMALZONE OUTPATIENT PREOP LIGHTS 1 10.0 PERCENT REDUCTION,OUTPATIENTHEALTHCARE BLDG_LIGHT_EXAM_SCH,BUILDING STORY 2 THERMALZONE,3743.84,1046.6,3365.675,0.899,3.216,0.000,0.700,0.200,0.100,1.000,General,168.284,3029.107
 Lights Internal Gains Nominal, BUILDING STORY 2 THERMALZONE OUTPATIENT PROCEDUREROOM LIGHTS 1 10.0 PERCENT REDUCTION,OUTPATIENTHEALTHCARE BLDG_LIGHT_EXAM_SCH,BUILDING STORY 2 THERMALZONE,3743.84,1046.6,7479.278,1.998,7.146,0.000,0.700,0.200,0.100,1.000,General,373.964,6731.350
 Lights Internal Gains Nominal, BUILDING STORY 2 THERMALZONE OUTPATIENT SOIL WORK LIGHTS 1 10.0 PERCENT REDUCTION,OUTPATIENTHEALTHCARE BLDG_LIGHT_EXAM_SCH,BUILDING STORY 2 THERMALZONE,3743.84,1046.6,5223.623,1.395,4.991,0.000,0.700,0.200,0.100,1.000,General,261.181,4701.260
 Lights Internal Gains Nominal, BUILDING STORY 1 THERMALZONE OUTPATIENT LOBBY LIGHTS 1 10.0 PERCENT REDUCTION,OUTPATIENTHEALTHCARE BLDG_LIGHT_SCH,BUILDING STORY 1 THERMALZONE,3743.84,396.2,7819.605,2.089,19.735,0.000,0.700,0.200,0.100,1.000,General,390.980,7037.644
 Lights Internal Gains Nominal, BUILDING STORY 1 THERMALZONE OUTPATIENT LOCKERROOM LIGHTS 1 10.0 PERCENT REDUCTION,OUTPATIENTHEALTHCARE BLDG_LIGHT_SCH,BUILDING STORY 1 THERMALZONE,3743.84,396.2,6015.080,1.607,15.181,0.000,0.700,0.200,0.100,1.000,General,300.754,5413.572
 Lights Internal Gains Nominal, BUILDING STORY 1 THERMALZONE OUTPATIENT NURSESTATION LIGHTS 1 10.0 PERCENT REDUCTION,OUTPATIENTHEALTHCARE BLDG_LIGHT_SCH,BUILDING STORY 1 THERMALZONE,3743.84,396.2,7479.278,1.998,18.876,0.000,0.700,0.200,0.100,1.000,General,373.964,6731.350
 Lights Internal Gains Nominal, BUILDING STORY 1 THERMALZONE OUTPATIENT PREOP LIGHTS 2 10.0 PERCENT REDUCTION,OUTPATIENTHEALTHCARE BLDG_LIGHT_EXAM_SCH,BUILDING STORY 1 THERMALZONE,3743.84,396.2,207.758,5.549E-002,0.524,0.000,0.700,0.200,0.100,1.000,General,10.388,186.982
 Lights Internal Gains Nominal, BUILDING STORY 1 THERMALZONE OUTPATIENT STAIR LIGHTS 1 10.0 PERCENT REDUCTION,OUTPATIENTHEALTHCARE BLDG_LIGHT_CORRIDOR_SCH,BUILDING STORY 1 THERMALZONE,3743.84,396.2,5777.643,1.543,14.581,0.000,0.700,0.200,0.100,1.000,General,288.882,5199.879
 Lights Internal Gains Nominal, BUILDING STORY 1 THERMALZONE OUTPATIENT TOILET LIGHTS 1 10.0 PERCENT REDUCTION,OUTPATIENTHEALTHCARE BLDG_LIGHT_SCH,BUILDING STORY 1 THERMALZONE,3743.84,396.2,6873.812,1.836,17.348,0.000,0.700,0.200,0.100,1.000,General,343.691,6186.431
 Lights Internal Gains Nominal, BUILDING STORY 1 THERMALZONE OUTPATIENT XRAY LIGHTS 1 10.0 PERCENT REDUCTION,OUTPATIENTHEALTHCARE BLDG_LIGHT_EXAM_SCH,BUILDING STORY 1 THERMALZONE,3743.84,396.2,617.337,0.165,1.558,0.000,0.700,0.200,0.100,1.000,General,30.867,555.603
 Lights Internal Gains Nominal, BUILDING STORY 4 THERMALZONE OUTPATIENT LOUNGE LIGHTS 1 10.0 PERCENT REDUCTION,OUTPATIENTHEALTHCARE BLDG_LIGHT_SCH,BUILDING STORY 4 THERMALZONE,3743.84,742.2,9275.887,2.478,12.497,0.000,0.700,0.200,0.100,1.000,General,463.794,8348.299
 Lights Internal Gains Nominal, BUILDING STORY 4 THERMALZONE OUTPATIENT OR LIGHTS 1 10.0 PERCENT REDUCTION,OUTPATIENTHEALTHCARE BLDG_LIGHT_EXAM_SCH,BUILDING STORY 4 THERMALZONE,3743.84,742.2,18326.209,4.895,24.691,0.000,0.700,0.200,0.100,1.000,General,916.310,16493.588
 Lights Internal Gains Nominal, BUILDING STORY 4 THERMALZONE OUTPATIENT PACU LIGHTS 1 10.0 PERCENT REDUCTION,OUTPATIENTHEALTHCARE BLDG_LIGHT_EXAM_SCH,BUILDING STORY 4 THERMALZONE,3743.84,742.2,7344.730,1.962,9.896,0.000,0.700,0.200,0.100,1.000,General,367.236,6610.257
 Lights Internal Gains Nominal, BUILDING STORY 4 THERMALZONE OUTPATIENT XRAY LIGHTS 2 10.0 PERCENT REDUCTION,OUTPATIENTHEALTHCARE BLDG_LIGHT_EXAM_SCH,BUILDING STORY 4 THERMALZONE,3743.84,742.2,2865.078,0.765,3.860,0.000,0.700,0.200,0.100,1.000,General,143.254,2578.570
 Lights Internal Gains Nominal, BUILDING STORY 6 THERMALZONE OUTPATIENT OR LIGHTS 2 10.0 PERCENT REDUCTION,OUTPATIENTHEALTHCARE BLDG_LIGHT_EXAM_SCH,BUILDING STORY 6 THERMALZONE,3743.84,966.5,11796.681,3.151,12.206,0.000,0.700,0.200,0.100,1.000,General,589.834,10617.013
 Lights Internal Gains Nominal, BUILDING STORY 6 THERMALZONE OUTPATIENT PHYSICALTHERAPY LIGHTS 1 10.0 PERCENT REDUCTION,OUTPATIENTHEALTHCARE BLDG_LIGHT_EXAM_SCH,BUILDING STORY 6 THERMALZONE,3743.84,966.5,14816.093,3.957,15.330,0.000,0.700,0.200,0.100,1.000,General,740.805,13334.484
 Lights Internal Gains Nominal, BUILDING STORY 6 THERMALZONE OUTPATIENT RECEPTION LIGHTS 1 10.0 PERCENT REDUCTION,OUTPATIENTHEALTHCARE BLDG_LIGHT_SCH,BUILDING STORY 6 THERMALZONE,3743.84,966.5,18777.340,5.016,19.429,0.000,0.700,0.200,0.100,1.000,General,938.867,16899.606
 Lights Internal Gains Nominal, BUILDING STORY 3 THERMALZONE OUTPATIENT EXAM LIGHTS 1 10.0 PERCENT REDUCTION,OUTPATIENTHEALTHCARE BLDG_LIGHT_EXAM_SCH,BUILDING STORY 3 THERMALZONE,3743.84,215.2,11782.830,3.147,54.746,0.000,0.700,0.200,0.100,1.000,General,589.142,10604.547
 Lights Internal Gains Nominal, BUILDING STORY 3 THERMALZONE OUTPATIENT JANITOR LIGHTS 1 10.0 PERCENT REDUCTION,OUTPATIENTHEALTHCARE BLDG_LIGHT_STORAGE_SCH,BUILDING STORY 3 THERMALZONE,3743.84,215.2,23933.689,6.393,111.202,0.000,0.700,0.200,0.100,1.000,General,1196.684,21540.320
 Lights Internal Gains Nominal, BUILDING STORY 3 THERMALZONE OUTPATIENT PHYSICALTHERAPY LIGHTS 2 10.0 PERCENT REDUCTION,OUTPATIENTHEALTHCARE BLDG_LIGHT_EXAM_SCH,BUILDING STORY 3 THERMALZONE,3743.84,215.2,1638.318,0.438,7.612,0.000,0.700,0.200,0.100,1.000,General,81.916,1474.486
 Lights Internal Gains Nominal, BUILDING STORY 8 THERMALZONE OUTPATIENT EXAM LIGHTS 2 10.0 PERCENT REDUCTION,OUTPATIENTHEALTHCARE BLDG_LIGHT_EXAM_SCH,BUILDING STORY 8 THERMALZONE,3743.84,750.0,49297.938,13.168,65.733,0.000,0.700,0.200,0.100,1.000,General,2464.897,44368.144
 Lights Internal Gains Nominal, BUILDING STORY 8 THERMALZONE OUTPATIENT OFFICE LIGHTS 1 10.0 PERCENT REDUCTION,OUTPATIENTHEALTHCARE BLDG_LIGHT_OFFICE_SCH,BUILDING STORY 8 THERMALZONE,3743.84,750.0,3743.596,1.000,4.992,0.000,0.700,0.200,0.100,1.000,General,187.180,3369.237
 Lights Internal Gains Nominal, BUILDING STORY 5 THERMALZONE OUTPATIENT OFFICE LIGHTS 2 10.0 PERCENT REDUCTION,OUTPATIENTHEALTHCARE BLDG_LIGHT_OFFICE_SCH,BUILDING STORY 5 THERMALZONE,3743.84,201.5,39895.417,10.656,198.000,0.000,0.700,0.200,0.100,1.000,General,1994.771,35905.875
 Lights Internal Gains Nominal, BUILDING STORY 7 THERMALZONE OUTPATIENT HALL LIGHTS 1 10.0 PERCENT REDUCTION,OUTPATIENTHEALTHCARE BLDG_LIGHT_CORRIDOR_SCH,BUILDING STORY 7 THERMALZONE,3743.84,181.5,3601.134,0.962,19.843,0.000,0.700,0.200,0.100,1.000,General,180.057,3241.020
 Lights Internal Gains Nominal, BUILDING STORY 7 THERMALZONE OUTPATIENT OFFICE LIGHTS 3 10.0 PERCENT REDUCTION,OUTPATIENTHEALTHCARE BLDG_LIGHT_OFFICE_SCH,BUILDING STORY 7 THERMALZONE,3743.84,181.5,35934.170,9.598,198.000,0.000,0.700,0.200,0.100,1.000,General,1796.708,32340.753
 Lights Internal Gains Nominal, BUILDING STORY 9 THERMALZONE OUTPATIENT HALL LIGHTS 2 10.0 PERCENT REDUCTION,OUTPATIENTHEALTHCARE BLDG_LIGHT_CORRIDOR_SCH,BUILDING STORY 9 THERMALZONE,3743.84,0.0,36268.561,9.688,N/A,0.000,0.700,0.200,0.100,1.000,General,1813.428,32641.705
 Lights Internal Gains Nominal, BUILDING STORY 10 THERMALZONE OUTPATIENT HALL LIGHTS 3 10.0 PERCENT REDUCTION,OUTPATIENTHEALTHCARE BLDG_LIGHT_CORRIDOR_SCH,BUILDING STORY 10 THERMALZONE,3743.84,0.0,36268.561,9.688,N/A,0.000,0.700,0.200,0.100,1.000,General,1813.428,32641.705
! <ElectricEquipment Internal Gains Nominal>,Name,Schedule Name,Zone Name,Zone Floor Area {m2},# Zone Occupants,Equipment Level {W},Equipment/Floor Area {W/m2},Equipment per person {W/person},Fraction Latent,Fraction Radiant,Fraction Lost,Fraction Convected,End-Use SubCategory,Nominal Minimum Equipment Level {W},Nominal Maximum Equipment Level {W}
 ElectricEquipment Internal Gains Nominal, BUILDING STORY 2 THERMALZONE 27 ELEVATOR FANS 20.0 PERCENT REDUCTION,ELEVATOR SCHEDULE 3,BUILDING STORY 2 THERMALZONE,3743.84,1046.6,1613.200,0.431,1.541,0.000,0.500,0.000,0.500,Elevators,0.000,1613.200
 ElectricEquipment Internal Gains Nominal, BUILDING STORY 2 THERMALZONE 27 ELEVATOR LIFT MOTORS 20.0 PERCENT REDUCTION,ELEVATOR SCHEDULE 1,BUILDING STORY 2 THERMALZONE,3743.84,1046.6,439756.301,117.461,420.177,0.000,0.000,1.000,0.000,Elevators,0.000,439756.301
 ElectricEquipment Internal Gains Nominal, BUILDING STORY 2 THERMALZONE 27 ELEVATOR LIGHTS 20.0 PERCENT REDUCTION,ELEVATOR SCHEDULE 2,BUILDING STORY 2 THERMALZONE,3743.84,1046.6,1920.476,0.513,1.835,0.000,0.500,0.000,0.500,Elevators,0.000,1920.476
 ElectricEquipment Internal Gains Nominal, BUILDING STORY 2 THERMALZONE OUTPATIENT ANESTHESIA ELEC EQUIP 1 20.0 PERCENT REDUCTION,OUTPATIENTHEALTHCARE BLDG_EQUIP_SCH_BASE,BUILDING STORY 2 THERMALZONE,3743.84,1046.6,1829.147,0.489,1.748,0.000,0.500,0.000,0.500,General,548.744,1829.147
 ElectricEquipment Internal Gains Nominal, BUILDING STORY 2 THERMALZONE OUTPATIENT BIOHAZARD ELEC EQUIP 1 20.0 PERCENT REDUCTION,OUTPATIENTHEALTHCARE BLDG_EQUIP_SCH_BASE,BUILDING STORY 2 THERMALZONE,3743.84,1046.6,49.246,1.315E-002,4.705E-002,0.000,0.500,0.000,0.500,General,14.774,49.246
 ElectricEquipment Internal Gains Nominal, BUILDING STORY 2 THERMALZONE OUTPATIENT CAFE ELEC EQUIP 1 20.0 PERCENT REDUCTION,OUTPATIENTHEALTHCARE BLDG_EQUIP_SCH_BASE,BUILDING STORY 2 THERMALZONE,3743.84,1046.6,3623.119,0.968,3.462,0.000,0.500,0.000,0.500,General,1086.936,3623.119
 ElectricEquipment Internal Gains Nominal, BUILDING STORY 2 THERMALZONE OUTPATIENT CLEANWORK ELEC EQUIP 1 20.0 PERCENT REDUCTION,OUTPATIENTHEALTHCARE BLDG_EQUIP_SCH_BASE,BUILDING STORY 2 THERMALZONE,3743.84,1046.6,4994.979,1.334,4.773,0.000,0.500,0.000,0.500,General,1498.494,4994.979
 ElectricEquipment Internal Gains Nominal, BUILDING STORY 2 THERMALZONE OUTPATIENT CONFERENCE ELEC EQUIP 1 20.0 PERCENT REDUCTION,OUTPATIENTHEALTHCARE BLDG_EQUIP_SCH_BASE,BUILDING STORY 2 THERMALZONE,3743.84,1046.6,2884.425,0.770,2.756,0.000,0.500,0.000,0.500,General,865.327,2884.425
 ElectricEquipment Internal Gains Nominal, BUILDING STORY 2 THERMALZONE OUTPATIENT ELEC/MECHROOM ELEC EQUIP 1 20.0 PERCENT REDUCTION,OUTPATIENTHEALTHCARE BLDG_EQUIP_SCH_BASE,BUILDING STORY 2 THERMALZONE,3743.84,1046.6,19170.871,5.121,18.317,0.000,0.500,0.000,0.500,General,5751.261,19170.871
 ElectricEquipment Internal Gains Nominal, BUILDING STORY 2 THERMALZONE OUTPATIENT IT_ROOM ELEC EQUIP 1 20.0 PERCENT REDUCTION,OUTPATIENTHEALTHCARE BLDG_EQUIP_SCH_BASE,BUILDING STORY 2 THERMALZONE,3743.84,1046.6,1044.725,0.279,0.998,0.000,0.500,0.000,0.500,General,313.417,1044.725
 ElectricEquipment Internal Gains Nominal, BUILDING STORY 2 THERMALZONE OUTPATIENT MEDGAS ELEC EQUIP 1 20.0 PERCENT REDUCTION,OUTPATIENTHEALTHCARE BLDG_EQUIP_SCH_BASE,BUILDING STORY 2 THERMALZONE,3743.84,1046.6,49.246,1.315E-002,4.705E-002,0.000,0.500,0.000,0.500,General,14.774,49.246
 ElectricEquipment Internal Gains Nominal, BUILDING STORY 2 THERMALZONE OUTPATIENT MRI ELEC EQUIP 1 20.0 PERCENT REDUCTION,OUTPATIENTHEALTHCARE BLDG_EQUIP_SCH_BASE,BUILDING STORY 2 THERMALZONE,3743.84,1046.6,37638.223,10.053,35.962,0.000,0.500,0.000,0.500,General,11291.467,37638.223
 ElectricEquipment Internal Gains Nominal, BUILDING STORY 2 THERMALZONE OUTPATIENT MRI_CONTROL ELEC EQUIP 1 20.0 PERCENT REDUCTION,OUTPATIENTHEALTHCARE BLDG_EQUIP_SCH_BASE,BUILDING STORY 2 THERMALZONE,3743.84,1046.6,14422.123,3.852,13.780,0.000,0.500,0.000,0.500,General,4326.637,14422.123
 ElectricEquipment Internal Gains Nominal, BUILDING STORY 2 THERMALZONE OUTPATIENT PREOP ELEC EQUIP 1 20.0 PERCENT REDUCTION,OUTPATIENTHEALTHCARE BLDG_EQUIP_SCH_BASE,BUILDING STORY 2 THERMALZONE,3743.84,1046.6,8547.746,2.283,8.167,0.000,0.500,0.000,0.500,General,2564.324,8547.746
 ElectricEquipment Internal Gains Nominal, BUILDING STORY 2 THERMALZONE OUTPATIENT PROCEDUREROOM ELEC EQUIP 1 20.0 PERCENT REDUCTION,OUTPATIENTHEALTHCARE BLDG_EQUIP_SCH_BASE,BUILDING STORY 2 THERMALZONE,3743.84,1046.6,7386.941,1.973,7.058,0.000,0.500,0.000,0.500,General,2216.082,7386.941
 ElectricEquipment Internal Gains Nominal, BUILDING STORY 2 THERMALZONE OUTPATIENT SOIL WORK ELEC EQUIP 1 20.0 PERCENT REDUCTION,OUTPATIENTHEALTHCARE BLDG_EQUIP_SCH_BASE,BUILDING STORY 2 THERMALZONE,3743.84,1046.6,6190.960,1.654,5.915,0.000,0.500,0.000,0.500,General,1857.288,6190.960
 ElectricEquipment Internal Gains Nominal, BUILDING STORY 1 THERMALZONE OUTPATIENT LOBBY ELEC EQUIP 1 20.0 PERCENT REDUCTION,OUTPATIENTHEALTHCARE BLDG_EQUIP_SCH_BASE,BUILDING STORY 1 THERMALZONE,3743.84,396.2,5881.412,1.571,14.843,0.000,0.500,0.000,0.500,General,1764.424,5881.412
 ElectricEquipment Internal Gains Nominal, BUILDING STORY 1 THERMALZONE OUTPATIENT LOCKERROOM ELEC EQUIP 1 20.0 PERCENT REDUCTION,OUTPATIENTHEALTHCARE BLDG_EQUIP_SCH_BASE,BUILDING STORY 1 THERMALZONE,3743.84,396.2,20050.268,5.356,50.602,0.000,0.500,0.000,0.500,General,6015.080,20050.268
 ElectricEquipment Internal Gains Nominal, BUILDING STORY 1 THERMALZONE OUTPATIENT NURSESTATION ELEC EQUIP 1 20.0 PERCENT REDUCTION,OUTPATIENTHEALTHCARE BLDG_EQUIP_SCH_BASE,BUILDING STORY 1 THERMALZONE,3743.84,396.2,13296.494,3.552,33.557,0.000,0.500,0.000,0.500,General,3988.948,13296.494
 ElectricEquipment Internal Gains Nominal, BUILDING STORY 1 THERMALZONE OUTPATIENT PREOP ELEC EQUIP 2 20.0 PERCENT REDUCTION,OUTPATIENTHEALTHCARE BLDG_EQUIP_SCH_BASE,BUILDING STORY 1 THERMALZONE,3743.84,396.2,527.639,0.141,1.332,0.000,0.500,0.000,0.500,General,158.292,527.639
 ElectricEquipment Internal Gains Nominal, BUILDING STORY 1 THERMALZONE OUTPATIENT STAIR ELEC EQUIP 1 20.0 PERCENT REDUCTION,OUTPATIENTHEALTHCARE BLDG_EQUIP_SCH_BASE,BUILDING STORY 1 THERMALZONE,3743.84,396.2,2054.273,0.549,5.185,0.000,0.500,0.000,0.500,General,616.282,2054.273
 ElectricEquipment Internal Gains Nominal, BUILDING STORY 1 THERMALZONE OUTPATIENT TOILET ELEC EQUIP 1 20.0 PERCENT REDUCTION,OUTPATIENTHEALTHCARE BLDG_EQUIP_SCH_BASE,BUILDING STORY 1 THERMALZONE,3743.84,396.2,2715.580,0.725,6.853,0.000,0.300,0.700,0.000,General,814.674,2715.580
 ElectricEquipment Internal Gains Nominal, BUILDING STORY 1 THERMALZONE OUTPATIENT XRAY ELEC EQUIP 1 20.0 PERCENT REDUCTION,OUTPATIENTHEALTHCARE BLDG_EQUIP_SCH_BASE,BUILDING STORY 1 THERMALZONE,3743.84,396.2,13718.605,3.664,34.623,0.000,0.500,0.000,0.500,General,4115.581,13718.605
 ElectricEquipment Internal Gains Nominal, BUILDING STORY 4 THERMALZONE OUTPATIENT LOUNGE ELEC EQUIP 1 20.0 PERCENT REDUCTION,OUTPATIENTHEALTHCARE BLDG_EQUIP_SCH_BASE,BUILDING STORY 4 THERMALZONE,3743.84,742.2,30919.624,8.259,41.658,0.000,0.500,0.000,0.500,General,9275.887,30919.624
 ElectricEquipment Internal Gains Nominal, BUILDING STORY 4 THERMALZONE OUTPATIENT OR ELEC EQUIP 1 20.0 PERCENT REDUCTION,OUTPATIENTHEALTHCARE BLDG_EQUIP_SCH_BASE,BUILDING STORY 4 THERMALZONE,3743.84,742.2,29618.116,7.911,39.904,0.000,0.500,0.000,0.500,General,8885.435,29618.116
 ElectricEquipment Internal Gains Nominal, BUILDING STORY 4 THERMALZONE OUTPATIENT PACU ELEC EQUIP 1 20.0 PERCENT REDUCTION,OUTPATIENTHEALTHCARE BLDG_EQUIP_SCH_BASE,BUILDING STORY 4 THERMALZONE,3743.84,742.2,24482.433,6.539,32.985,0.000,0.500,0.000,0.500,General,7344.730,24482.433
 ElectricEquipment Internal Gains Nominal, BUILDING STORY 4 THERMALZONE OUTPATIENT XRAY ELEC EQUIP 2 20.0 PERCENT REDUCTION,OUTPATIENTHEALTHCARE BLDG_EQUIP_SCH_BASE,BUILDING STORY 4 THERMALZONE,3743.84,742.2,63668.396,17.006,85.780,0.000,0.500,0.000,0.500,General,19100.519,63668.396
 ElectricEquipment Internal Gains Nominal, BUILDING STORY 6 THERMALZONE OUTPATIENT OR ELEC EQUIP 2 20.0 PERCENT REDUCTION,OUTPATIENTHEALTHCARE BLDG_EQUIP_SCH_BASE,BUILDING STORY 6 THERMALZONE,3743.84,966.5,19065.343,5.092,19.727,0.000,0.500,0.000,0.500,General,5719.603,19065.343
 ElectricEquipment Internal Gains Nominal, BUILDING STORY 6 THERMALZONE OUTPATIENT PHYSICALTHERAPY ELEC EQUIP 1 20.0 PERCENT REDUCTION,OUTPATIENTHEALTHCARE BLDG_EQUIP_SCH_BASE,BUILDING STORY 6 THERMALZONE,3743.84,966.5,21949.767,5.863,22.711,0.000,0.500,0.000,0.500,General,6584.930,21949.767
 ElectricEquipment Internal Gains Nominal, BUILDING STORY 6 THERMALZONE OUTPATIENT RECEPTION ELEC EQUIP 1 20.0 PERCENT REDUCTION,OUTPATIENTHEALTHCARE BLDG_EQUIP_SCH_BASE,BUILDING STORY 6 THERMALZONE,3743.84,966.5,14123.128,3.772,14.613,0.000,0.500,0.000,0.500,General,4236.938,14123.128
 ElectricEquipment Internal Gains Nominal, BUILDING STORY 3 THERMALZONE OUTPATIENT EXAM ELEC EQUIP 1 20.0 PERCENT REDUCTION,OUTPATIENTHEALTHCARE BLDG_EQUIP_SCH_BASE,BUILDING STORY 3 THERMALZONE,3743.84,215.2,7680.660,2.052,35.686,0.000,0.500,0.000,0.500,General,2304.198,7680.660
 ElectricEquipment Internal Gains Nominal, BUILDING STORY 3 THERMALZONE OUTPATIENT JANITOR ELEC EQUIP 1 20.0 PERCENT REDUCTION,OUTPATIENTHEALTHCARE BLDG_EQUIP_SCH_BASE,BUILDING STORY 3 THERMALZONE,3743.84,215.2,2363.821,0.631,10.983,0.000,0.300,0.700,0.000,General,709.146,2363.821
 ElectricEquipment Internal Gains Nominal, BUILDING STORY 3 THERMALZONE OUTPATIENT PHYSICALTHERAPY ELEC EQUIP 2 20.0 PERCENT REDUCTION,OUTPATIENTHEALTHCARE BLDG_EQUIP_SCH_BASE,BUILDING STORY 3 THERMALZONE,3743.84,215.2,2427.138,0.648,11.277,0.000,0.500,0.000,0.500,General,728.141,2427.138
 ElectricEquipment Internal Gains Nominal, BUILDING STORY 8 THERMALZONE OUTPATIENT EXAM ELEC EQUIP 2 20.0 PERCENT REDUCTION,OUTPATIENTHEALTHCARE BLDG_EQUIP_SCH_BASE,BUILDING STORY 8 THERMALZONE,3743.84,750.0,32134.952,8.583,42.848,0.000,0.500,0.000,0.500,General,9640.486,32134.952
 ElectricEquipment Internal Gains Nominal, BUILDING STORY 8 THERMALZONE OUTPATIENT OFFICE ELEC EQUIP 1 20.0 PERCENT REDUCTION,OUTPATIENTHEALTHCARE BLDG_EQUIP_SCH_BASE,BUILDING STORY 8 THERMALZONE,3743.84,750.0,3327.641,0.889,4.437,0.000,0.500,0.000,0.500,General,998.292,3327.641
 ElectricEquipment Internal Gains Nominal, BUILDING STORY 5 THERMALZONE OUTPATIENT OFFICE ELEC EQUIP 2 20.0 PERCENT REDUCTION,OUTPATIENTHEALTHCARE BLDG_EQUIP_SCH_BASE,BUILDING STORY 5 THERMALZONE,3743.84,201.5,35462.593,9.472,176.000,0.000,0.500,0.000,0.500,General,10638.778,35462.593
 ElectricEquipment Internal Gains Nominal, BUILDING STORY 7 THERMALZONE OUTPATIENT HALL ELEC EQUIP 1 20.0 PERCENT REDUCTION,OUTPATIENTHEALTHCARE BLDG_EQUIP_SCH_BASE,BUILDING STORY 7 THERMALZONE,3743.84,181.5,1280.403,0.342,7.055,0.000,0.500,0.000,0.500,General,384.121,1280.403
 ElectricEquipment Internal Gains Nominal, BUILDING STORY 7 THERMALZONE OUTPATIENT OFFICE ELEC EQUIP 3 20.0 PERCENT REDUCTION,OUTPATIENTHEALTHCARE BLDG_EQUIP_SCH_BASE,BUILDING STORY 7 THERMALZONE,3743.84,181.5,31941.484,8.532,176.000,0.000,0.500,0.000,0.500,General,9582.445,31941.484
 ElectricEquipment Internal Gains Nominal, BUILDING STORY 9 THERMALZONE OUTPATIENT HALL ELEC EQUIP 2 20.0 PERCENT REDUCTION,OUTPATIENTHEALTHCARE BLDG_EQUIP_SCH_BASE,BUILDING STORY 9 THERMALZONE,3743.84,0.0,12895.488,3.444,N/A,0.000,0.500,0.000,0.500,General,3868.646,12895.488
 ElectricEquipment Internal Gains Nominal, BUILDING STORY 10 THERMALZONE OUTPATIENT HALL ELEC EQUIP 3 20.0 PERCENT REDUCTION,OUTPATIENTHEALTHCARE BLDG_EQUIP_SCH_BASE,BUILDING STORY 10 THERMALZONE,3743.84,0.0,12895.488,3.444,N/A,0.000,0.500,0.000,0.500,General,3868.646,12895.488
! <GasEquipment Internal Gains Nominal>,Name,Schedule Name,Zone Name,Zone Floor Area {m2},# Zone Occupants,Equipment Level {W},Equipment/Floor Area {W/m2},Equipment per person {W/person},Fraction Latent,Fraction Radiant,Fraction Lost,Fraction Convected,End-Use SubCategory,Nominal Minimum Equipment Level {W},Nominal Maximum Equipment Level {W}
 GasEquipment Internal Gains Nominal, BUILDING STORY 4 THERMALZONE OUTPATIENT OR GAS EQUIP 1,OUTPATIENTHEALTHCARE BLDG_EQUIP_SCH,BUILDING STORY 4 THERMALZONE,3743.84,742.2,64748.963,17.295,87.236,0.000,0.000,0.500,0.500,General,19424.689,64748.963
 GasEquipment Internal Gains Nominal, BUILDING STORY 6 THERMALZONE OUTPATIENT OR GAS EQUIP 2,OUTPATIENTHEALTHCARE BLDG_EQUIP_SCH,BUILDING STORY 6 THERMALZONE,3743.84,966.5,41679.261,11.133,43.126,0.000,0.000,0.500,0.500,General,12503.778,41679.261
! <Shadowing/Sun Position Calculations Annual Simulations>, Shading Calculation Method, Shading Calculation Update Frequency Method, Shading Calculation Update Frequency {days}, Maximum Figures in Shadow Overlap Calculations {}, Polygon Clipping Algorithm, Pixel Counting Resolution, Sky Diffuse Modeling Algorithm, Output External Shading Calculation Results, Disable Self-Shading Within Shading Zone Groups, Disable Self-Shading From Shading Zone Groups to Other Zones
Shadowing/Sun Position Calculations Annual Simulations,PolygonClipping,Periodic,20,15000,SutherlandHodgman,512,SimpleSkyDiffuseModeling,No,No,No
! <Water Heater Information>,Type,Name,Volume {m3},Maximum Capacity {W},Standard Rated Recovery Efficiency, Standard Rated Energy Factor
! <ZoneInfiltration Airflow Stats Nominal>,Name,Schedule Name,Zone Name, Zone Floor Area {m2}, # Zone Occupants,Design Volume Flow Rate {m3/s},Volume Flow Rate/Floor Area {m3/s-m2},Volume Flow Rate/Exterior Surface Area {m3/s-m2},ACH - Air Changes per Hour,Equation A - Constant Term Coefficient {},Equation B - Temperature Term Coefficient {1/C},Equation C - Velocity Term Coefficient {s/m}, Equation D - Velocity Squared Term Coefficient {s2/m2}
 ZoneInfiltration Airflow Stats Nominal, BUILDING STORY 2 THERMALZONE OUTPATIENT ANESTHESIA A  - STORY GROUND INFILTRATION,ALWAYS ON DISCRETE,BUILDING STORY 2 THERMALZONE,3743.84,1046.6,9.494E-003,2.536E-006,1.138E-005,3.043E-003,0.000,0.000,0.224,0.000
 ZoneInfiltration Airflow Stats Nominal, BUILDING STORY 2 THERMALZONE OUTPATIENT ANESTHESIA C  - STORY GROUND INFILTRATION,ALWAYS ON DISCRETE,BUILDING STORY 2 THERMALZONE,3743.84,1046.6,9.494E-003,2.536E-006,1.138E-005,3.043E-003,0.000,0.000,0.224,0.000
 ZoneInfiltration Airflow Stats Nominal, BUILDING STORY 2 THERMALZONE OUTPATIENT BIOHAZARD A  - STORY GROUND INFILTRATION,ALWAYS ON DISCRETE,BUILDING STORY 2 THERMALZONE,3743.84,1046.6,5.112E-003,1.366E-006,6.128E-006,1.639E-003,0.000,0.000,0.224,0.000
 ZoneInfiltration Airflow Stats Nominal, BUILDING STORY 2 THERMALZONE OUTPATIENT BIOHAZARD C  - STORY GROUND INFILTRATION,ALWAYS ON DISCRETE,BUILDING STORY 2 THERMALZONE,3743.84,1046.6,5.112E-003,1.366E-006,6.128E-006,1.639E-003,0.000,0.000,0.224,0.000
 ZoneInfiltration Airflow Stats Nominal, BUILDING STORY 2 THERMALZONE OUTPATIENT CAFE A  - STORY GROUND INFILTRATION,ALWAYS ON DISCRETE,BUILDING STORY 2 THERMALZONE,3743.84,1046.6,3.761E-002,1.005E-005,4.509E-005,1.206E-002,0.000,0.000,0.224,0.000
 ZoneInfiltration Airflow Stats Nominal, BUILDING STORY 2 THERMALZONE OUTPATIENT CAFE C  - STORY GROUND INFILTRATION,ALWAYS ON DISCRETE,BUILDING STORY 2 THERMALZONE,3743.84,1046.6,3.761E-002,1.005E-005,4.509E-005,1.206E-002,0.000,0.000,0.224,0.000
 ZoneInfiltration Airflow Stats Nominal, BUILDING STORY 2 THERMALZONE OUTPATIENT CLEANWORK A  - STORY GROUND INFILTRATION,ALWAYS ON DISCRETE,BUILDING STORY 2 THERMALZONE,3743.84,1046.6,2.593E-002,6.925E-006,3.108E-005,8.310E-003,0.000,0.000,0.224,0.000
 ZoneInfiltration Airflow Stats Nominal, BUILDING STORY 2 THERMALZONE OUTPATIENT CLEANWORK C  - STORY GROUND INFILTRATION,ALWAYS ON DISCRETE,BUILDING STORY 2 THERMALZONE,3743.84,1046.6,2.593E-002,6.925E-006,3.108E-005,8.310E-003,0.000,0.000,0.224,0.000
 ZoneInfiltration Airflow Stats Nominal, BUILDING STORY 2 THERMALZONE OUTPATIENT CONFERENCE A  - STORY GROUND INFILTRATION,ALWAYS ON DISCRETE,BUILDING STORY 2 THERMALZONE,3743.84,1046.6,2.994E-002,7.998E-006,3.589E-005,9.598E-003,0.000,0.000,0.224,0.000
 ZoneInfiltration Airflow Stats Nominal, BUILDING STORY 2 THERMALZONE OUTPATIENT CONFERENCE C  - STORY GROUND INFILTRATION,ALWAYS ON DISCRETE,BUILDING STORY 2 THERMALZONE,3743.84,1046.6,2.994E-002,7.998E-006,3.589E-005,9.598E-003,0.000,0.000,0.224,0.000
 ZoneInfiltration Airflow Stats Nominal, BUILDING STORY 2 THERMALZONE OUTPATIENT DRESINGROOM A  - STORY GROUND INFILTRATION,ALWAYS ON DISCRETE,BUILDING STORY 2 THERMALZONE,3743.84,1046.6,7.668E-003,2.048E-006,9.192E-006,2.458E-003,0.000,0.000,0.224,0.000
 ZoneInfiltration Airflow Stats Nominal, BUILDING STORY 2 THERMALZONE OUTPATIENT DRESINGROOM C  - STORY GROUND INFILTRATION,ALWAYS ON DISCRETE,BUILDING STORY 2 THERMALZONE,3743.84,1046.6,7.668E-003,2.048E-006,9.192E-006,2.458E-003,0.000,0.000,0.224,0.000
 ZoneInfiltration Airflow Stats Nominal, BUILDING STORY 2 THERMALZONE OUTPATIENT ELEC/MECHROOM A  - STORY GROUND INFILTRATION,ALWAYS ON DISCRETE,BUILDING STORY 2 THERMALZONE,3743.84,1046.6,2.663E-002,7.112E-006,3.192E-005,8.534E-003,0.000,0.000,0.224,0.000
 ZoneInfiltration Airflow Stats Nominal, BUILDING STORY 2 THERMALZONE OUTPATIENT ELEC/MECHROOM A END_B - STORY GROUND INFILTRATION,ALWAYS ON DISCRETE,BUILDING STORY 2 THERMALZONE,3743.84,1046.6,2.635E-002,7.039E-006,3.159E-005,8.447E-003,0.000,0.000,0.224,0.000
 ZoneInfiltration Airflow Stats Nominal, BUILDING STORY 2 THERMALZONE OUTPATIENT ELEC/MECHROOM B END_B - STORY GROUND INFILTRATION,ALWAYS ON DISCRETE,BUILDING STORY 2 THERMALZONE,3743.84,1046.6,6.661E-002,1.779E-005,7.985E-005,2.135E-002,0.000,0.000,0.224,0.000
 ZoneInfiltration Airflow Stats Nominal, BUILDING STORY 2 THERMALZONE OUTPATIENT ELEC/MECHROOM C  - STORY GROUND INFILTRATION,ALWAYS ON DISCRETE,BUILDING STORY 2 THERMALZONE,3743.84,1046.6,2.663E-002,7.112E-006,3.192E-005,8.534E-003,0.000,0.000,0.224,0.000
 ZoneInfiltration Airflow Stats Nominal, BUILDING STORY 2 THERMALZONE OUTPATIENT ELEC/MECHROOM C END_B - STORY GROUND INFILTRATION,ALWAYS ON DISCRETE,BUILDING STORY 2 THERMALZONE,3743.84,1046.6,2.635E-002,7.039E-006,3.159E-005,8.447E-003,0.000,0.000,0.224,0.000
 ZoneInfiltration Airflow Stats Nominal, BUILDING STORY 2 THERMALZONE OUTPATIENT IT_ROOM A  - STORY GROUND INFILTRATION,ALWAYS ON DISCRETE,BUILDING STORY 2 THERMALZONE,3743.84,1046.6,9.859E-003,2.633E-006,1.182E-005,3.160E-003,0.000,0.000,0.224,0.000
 ZoneInfiltration Airflow Stats Nominal, BUILDING STORY 2 THERMALZONE OUTPATIENT IT_ROOM C  - STORY GROUND INFILTRATION,ALWAYS ON DISCRETE,BUILDING STORY 2 THERMALZONE,3743.84,1046.6,9.859E-003,2.633E-006,1.182E-005,3.160E-003,0.000,0.000,0.224,0.000
 ZoneInfiltration Airflow Stats Nominal, BUILDING STORY 2 THERMALZONE OUTPATIENT MEDGAS A  - STORY GROUND INFILTRATION,ALWAYS ON DISCRETE,BUILDING STORY 2 THERMALZONE,3743.84,1046.6,5.112E-003,1.366E-006,6.128E-006,1.639E-003,0.000,0.000,0.224,0.000
 ZoneInfiltration Airflow Stats Nominal, BUILDING STORY 2 THERMALZONE OUTPATIENT MEDGAS C  - STORY GROUND INFILTRATION,ALWAYS ON DISCRETE,BUILDING STORY 2 THERMALZONE,3743.84,1046.6,5.112E-003,1.366E-006,6.128E-006,1.639E-003,0.000,0.000,0.224,0.000
 ZoneInfiltration Airflow Stats Nominal, BUILDING STORY 2 THERMALZONE OUTPATIENT MRI A  - STORY GROUND INFILTRATION,ALWAYS ON DISCRETE,BUILDING STORY 2 THERMALZONE,3743.84,1046.6,3.907E-002,1.044E-005,4.684E-005,1.252E-002,0.000,0.000,0.224,0.000
 ZoneInfiltration Airflow Stats Nominal, BUILDING STORY 2 THERMALZONE OUTPATIENT MRI C  - STORY GROUND INFILTRATION,ALWAYS ON DISCRETE,BUILDING STORY 2 THERMALZONE,3743.84,1046.6,3.907E-002,1.044E-005,4.684E-005,1.252E-002,0.000,0.000,0.224,0.000
 ZoneInfiltration Airflow Stats Nominal, BUILDING STORY 2 THERMALZONE OUTPATIENT MRI_CONTROL A  - STORY GROUND INFILTRATION,ALWAYS ON DISCRETE,BUILDING STORY 2 THERMALZONE,3743.84,1046.6,1.497E-002,3.999E-006,1.795E-005,4.799E-003,0.000,0.000,0.224,0.000
 ZoneInfiltration Airflow Stats Nominal, BUILDING STORY 2 THERMALZONE OUTPATIENT MRI_CONTROL C  - STORY GROUND INFILTRATION,ALWAYS ON DISCRETE,BUILDING STORY 2 THERMALZONE,3743.84,1046.6,1.497E-002,3.999E-006,1.795E-005,4.799E-003,0.000,0.000,0.224,0.000
 ZoneInfiltration Airflow Stats Nominal, BUILDING STORY 2 THERMALZONE OUTPATIENT PREOP A  - STORY GROUND INFILTRATION,ALWAYS ON DISCRETE,BUILDING STORY 2 THERMALZONE,3743.84,1046.6,3.119E-002,8.331E-006,3.739E-005,9.997E-003,0.000,0.000,0.224,0.000
 ZoneInfiltration Airflow Stats Nominal, BUILDING STORY 2 THERMALZONE OUTPATIENT PREOP A END_A - STORY GROUND INFILTRATION,ALWAYS ON DISCRETE,BUILDING STORY 2 THERMALZONE,3743.84,1046.6,2.635E-002,7.039E-006,3.159E-005,8.447E-003,0.000,0.000,0.224,0.000
 ZoneInfiltration Airflow Stats Nominal, BUILDING STORY 2 THERMALZONE OUTPATIENT PREOP B END_A - STORY GROUND INFILTRATION,ALWAYS ON DISCRETE,BUILDING STORY 2 THERMALZONE,3743.84,1046.6,6.661E-002,1.779E-005,7.985E-005,2.135E-002,0.000,0.000,0.224,0.000
 ZoneInfiltration Airflow Stats Nominal, BUILDING STORY 2 THERMALZONE OUTPATIENT PREOP C  - STORY GROUND INFILTRATION,ALWAYS ON DISCRETE,BUILDING STORY 2 THERMALZONE,3743.84,1046.6,3.119E-002,8.331E-006,3.739E-005,9.997E-003,0.000,0.000,0.224,0.000
 ZoneInfiltration Airflow Stats Nominal, BUILDING STORY 2 THERMALZONE OUTPATIENT PREOP C END_A - STORY GROUND INFILTRATION,ALWAYS ON DISCRETE,BUILDING STORY 2 THERMALZONE,3743.84,1046.6,2.635E-002,7.039E-006,3.159E-005,8.447E-003,0.000,0.000,0.224,0.000
 ZoneInfiltration Airflow Stats Nominal, BUILDING STORY 2 THERMALZONE OUTPATIENT PROCEDUREROOM A  - STORY GROUND INFILTRATION,ALWAYS ON DISCRETE,BUILDING STORY 2 THERMALZONE,3743.84,1046.6,2.556E-002,6.828E-006,3.064E-005,8.193E-003,0.000,0.000,0.224,0.000
 ZoneInfiltration Airflow Stats Nominal, BUILDING STORY 2 THERMALZONE OUTPATIENT PROCEDUREROOM C  - STORY GROUND INFILTRATION,ALWAYS ON DISCRETE,BUILDING STORY 2 THERMALZONE,3743.84,1046.6,2.556E-002,6.828E-006,3.064E-005,8.193E-003,0.000,0.000,0.224,0.000
 ZoneInfiltration Airflow Stats Nominal, BUILDING STORY 2 THERMALZONE OUTPATIENT SOIL WORK A  - STORY GROUND INFILTRATION,ALWAYS ON DISCRETE,BUILDING STORY 2 THERMALZONE,3743.84,1046.6,3.213E-002,8.583E-006,3.852E-005,1.030E-002,0.000,0.000,0.224,0.000
 ZoneInfiltration Airflow Stats Nominal, BUILDING STORY 2 THERMALZONE OUTPATIENT SOIL WORK C  - STORY GROUND INFILTRATION,ALWAYS ON DISCRETE,BUILDING STORY 2 THERMALZONE,3743.84,1046.6,3.213E-002,8.583E-006,3.852E-005,1.030E-002,0.000,0.000,0.224,0.000
 ZoneInfiltration Airflow Stats Nominal, BUILDING STORY 1 THERMALZONE OUTPATIENT LOBBY A  - STORY MID INFILTRATION,ALWAYS ON DISCRETE,BUILDING STORY 1 THERMALZONE,3743.84,396.2,5.550E-002,1.483E-005,6.653E-005,1.779E-002,0.000,0.000,0.224,0.000
 ZoneInfiltration Airflow Stats Nominal, BUILDING STORY 1 THERMALZONE OUTPATIENT LOBBY C  - STORY MID INFILTRATION,ALWAYS ON DISCRETE,BUILDING STORY 1 THERMALZONE,3743.84,396.2,5.550E-002,1.483E-005,6.653E-005,1.779E-002,0.000,0.000,0.224,0.000
 ZoneInfiltration Airflow Stats Nominal, BUILDING STORY 1 THERMALZONE OUTPATIENT LOCKERROOM A  - STORY MID INFILTRATION,ALWAYS ON DISCRETE,BUILDING STORY 1 THERMALZONE,3743.84,396.2,5.620E-002,1.501E-005,6.737E-005,1.801E-002,0.000,0.000,0.224,0.000
 ZoneInfiltration Airflow Stats Nominal, BUILDING STORY 1 THERMALZONE OUTPATIENT LOCKERROOM A END_B - STORY MID INFILTRATION,ALWAYS ON DISCRETE,BUILDING STORY 1 THERMALZONE,3743.84,396.2,2.635E-002,7.039E-006,3.159E-005,8.447E-003,0.000,0.000,0.224,0.000
 ZoneInfiltration Airflow Stats Nominal, BUILDING STORY 1 THERMALZONE OUTPATIENT LOCKERROOM B END_B - STORY MID INFILTRATION,ALWAYS ON DISCRETE,BUILDING STORY 1 THERMALZONE,3743.84,396.2,6.661E-002,1.779E-005,7.985E-005,2.135E-002,0.000,0.000,0.224,0.000
 ZoneInfiltration Airflow Stats Nominal, BUILDING STORY 1 THERMALZONE OUTPATIENT LOCKERROOM C  - STORY MID INFILTRATION,ALWAYS ON DISCRETE,BUILDING STORY 1 THERMALZONE,3743.84,396.2,5.620E-002,1.501E-005,6.737E-005,1.801E-002,0.000,0.000,0.224,0.000
 ZoneInfiltration Airflow Stats Nominal, BUILDING STORY 1 THERMALZONE OUTPATIENT LOCKERROOM C END_B - STORY MID INFILTRATION,ALWAYS ON DISCRETE,BUILDING STORY 1 THERMALZONE,3743.84,396.2,2.635E-002,7.039E-006,3.159E-005,8.447E-003,0.000,0.000,0.224,0.000
 ZoneInfiltration Airflow Stats Nominal, BUILDING STORY 1 THERMALZONE OUTPATIENT NURSESTATION A  - STORY MID INFILTRATION,ALWAYS ON DISCRETE,BUILDING STORY 1 THERMALZONE,3743.84,396.2,6.902E-002,1.843E-005,8.273E-005,2.212E-002,0.000,0.000,0.224,0.000
 ZoneInfiltration Airflow Stats Nominal, BUILDING STORY 1 THERMALZONE OUTPATIENT NURSESTATION C  - STORY MID INFILTRATION,ALWAYS ON DISCRETE,BUILDING STORY 1 THERMALZONE,3743.84,396.2,6.902E-002,1.843E-005,8.273E-005,2.212E-002,0.000,0.000,0.224,0.000
 ZoneInfiltration Airflow Stats Nominal, BUILDING STORY 1 THERMALZONE OUTPATIENT PREOP A  - STORY MID INFILTRATION,ALWAYS ON DISCRETE,BUILDING STORY 1 THERMALZONE,3743.84,396.2,2.739E-003,7.315E-007,3.283E-006,8.778E-004,0.000,0.000,0.224,0.000
 ZoneInfiltration Airflow Stats Nominal, BUILDING STORY 1 THERMALZONE OUTPATIENT PREOP C  - STORY MID INFILTRATION,ALWAYS ON DISCRETE,BUILDING STORY 1 THERMALZONE,3743.84,396.2,2.739E-003,7.315E-007,3.283E-006,8.778E-004,0.000,0.000,0.224,0.000
 ZoneInfiltration Airflow Stats Nominal, BUILDING STORY 1 THERMALZONE OUTPATIENT STAIR A  - STORY MID INFILTRATION,ALWAYS ON DISCRETE,BUILDING STORY 1 THERMALZONE,3743.84,396.2,5.331E-002,1.424E-005,6.391E-005,1.709E-002,0.000,0.000,0.224,0.000
 ZoneInfiltration Airflow Stats Nominal, BUILDING STORY 1 THERMALZONE OUTPATIENT STAIR C  - STORY MID INFILTRATION,ALWAYS ON DISCRETE,BUILDING STORY 1 THERMALZONE,3743.84,396.2,5.331E-002,1.424E-005,6.391E-005,1.709E-002,0.000,0.000,0.224,0.000
 ZoneInfiltration Airflow Stats Nominal, BUILDING STORY 1 THERMALZONE OUTPATIENT TOILET A  - STORY MID INFILTRATION,ALWAYS ON DISCRETE,BUILDING STORY 1 THERMALZONE,3743.84,396.2,5.730E-002,1.531E-005,6.869E-005,1.837E-002,0.000,0.000,0.224,0.000
 ZoneInfiltration Airflow Stats Nominal, BUILDING STORY 1 THERMALZONE OUTPATIENT TOILET A END_A - STORY MID INFILTRATION,ALWAYS ON DISCRETE,BUILDING STORY 1 THERMALZONE,3743.84,396.2,2.635E-002,7.039E-006,3.159E-005,8.447E-003,0.000,0.000,0.224,0.000
 ZoneInfiltration Airflow Stats Nominal, BUILDING STORY 1 THERMALZONE OUTPATIENT TOILET B END_A - STORY MID INFILTRATION,ALWAYS ON DISCRETE,BUILDING STORY 1 THERMALZONE,3743.84,396.2,6.661E-002,1.779E-005,7.985E-005,2.135E-002,0.000,0.000,0.224,0.000
 ZoneInfiltration Airflow Stats Nominal, BUILDING STORY 1 THERMALZONE OUTPATIENT TOILET C  - STORY MID INFILTRATION,ALWAYS ON DISCRETE,BUILDING STORY 1 THERMALZONE,3743.84,396.2,5.730E-002,1.531E-005,6.869E-005,1.837E-002,0.000,0.000,0.224,0.000
 ZoneInfiltration Airflow Stats Nominal, BUILDING STORY 1 THERMALZONE OUTPATIENT TOILET C END_A - STORY MID INFILTRATION,ALWAYS ON DISCRETE,BUILDING STORY 1 THERMALZONE,3743.84,396.2,2.635E-002,7.039E-006,3.159E-005,8.447E-003,0.000,0.000,0.224,0.000
 ZoneInfiltration Airflow Stats Nominal, BUILDING STORY 1 THERMALZONE OUTPATIENT XRAY A  - STORY MID INFILTRATION,ALWAYS ON DISCRETE,BUILDING STORY 1 THERMALZONE,3743.84,396.2,1.424E-002,3.804E-006,1.707E-005,4.565E-003,0.000,0.000,0.224,0.000
 ZoneInfiltration Airflow Stats Nominal, BUILDING STORY 1 THERMALZONE OUTPATIENT XRAY C  - STORY MID INFILTRATION,ALWAYS ON DISCRETE,BUILDING STORY 1 THERMALZONE,3743.84,396.2,1.424E-002,3.804E-006,1.707E-005,4.565E-003,0.000,0.000,0.224,0.000
 ZoneInfiltration Airflow Stats Nominal, BUILDING STORY 4 THERMALZONE OUTPATIENT LOUNGE A  - STORY MID2 INFILTRATION,ALWAYS ON DISCRETE,BUILDING STORY 4 THERMALZONE,3743.84,742.2,0.515,1.375E-004,1.125E-004,0.165,0.000,0.000,0.224,0.000
 ZoneInfiltration Airflow Stats Nominal, BUILDING STORY 4 THERMALZONE OUTPATIENT LOUNGE A END_A - STORY MID2 INFILTRATION,ALWAYS ON DISCRETE,BUILDING STORY 4 THERMALZONE,3743.84,742.2,0.145,3.863E-005,3.159E-005,4.635E-002,0.000,0.000,0.224,0.000
 ZoneInfiltration Airflow Stats Nominal, BUILDING STORY 4 THERMALZONE OUTPATIENT LOUNGE B END_A - STORY MID2 INFILTRATION,ALWAYS ON DISCRETE,BUILDING STORY 4 THERMALZONE,3743.84,742.2,0.366,9.764E-005,7.985E-005,0.117,0.000,0.000,0.224,0.000
 ZoneInfiltration Airflow Stats Nominal, BUILDING STORY 4 THERMALZONE OUTPATIENT LOUNGE C  - STORY MID2 INFILTRATION,ALWAYS ON DISCRETE,BUILDING STORY 4 THERMALZONE,3743.84,742.2,0.515,1.375E-004,1.125E-004,0.165,0.000,0.000,0.224,0.000
 ZoneInfiltration Airflow Stats Nominal, BUILDING STORY 4 THERMALZONE OUTPATIENT LOUNGE C END_A - STORY MID2 INFILTRATION,ALWAYS ON DISCRETE,BUILDING STORY 4 THERMALZONE,3743.84,742.2,0.145,3.863E-005,3.159E-005,4.635E-002,0.000,0.000,0.224,0.000
 ZoneInfiltration Airflow Stats Nominal, BUILDING STORY 4 THERMALZONE OUTPATIENT OR A  - STORY MID2 INFILTRATION,ALWAYS ON DISCRETE,BUILDING STORY 4 THERMALZONE,3743.84,742.2,0.422,1.127E-004,9.214E-005,0.135,0.000,0.000,0.224,0.000
 ZoneInfiltration Airflow Stats Nominal, BUILDING STORY 4 THERMALZONE OUTPATIENT OR C  - STORY MID2 INFILTRATION,ALWAYS ON DISCRETE,BUILDING STORY 4 THERMALZONE,3743.84,742.2,0.422,1.127E-004,9.214E-005,0.135,0.000,0.000,0.224,0.000
 ZoneInfiltration Airflow Stats Nominal, BUILDING STORY 4 THERMALZONE OUTPATIENT PACU A  - STORY MID2 INFILTRATION,ALWAYS ON DISCRETE,BUILDING STORY 4 THERMALZONE,3743.84,742.2,0.393,1.049E-004,8.576E-005,0.126,0.000,0.000,0.224,0.000
 ZoneInfiltration Airflow Stats Nominal, BUILDING STORY 4 THERMALZONE OUTPATIENT PACU A END_B - STORY MID2 INFILTRATION,ALWAYS ON DISCRETE,BUILDING STORY 4 THERMALZONE,3743.84,742.2,0.145,3.863E-005,3.159E-005,4.635E-002,0.000,0.000,0.224,0.000
 ZoneInfiltration Airflow Stats Nominal, BUILDING STORY 4 THERMALZONE OUTPATIENT PACU B END_B - STORY MID2 INFILTRATION,ALWAYS ON DISCRETE,BUILDING STORY 4 THERMALZONE,3743.84,742.2,0.366,9.764E-005,7.985E-005,0.117,0.000,0.000,0.224,0.000
 ZoneInfiltration Airflow Stats Nominal, BUILDING STORY 4 THERMALZONE OUTPATIENT PACU C  - STORY MID2 INFILTRATION,ALWAYS ON DISCRETE,BUILDING STORY 4 THERMALZONE,3743.84,742.2,0.393,1.049E-004,8.576E-005,0.126,0.000,0.000,0.224,0.000
 ZoneInfiltration Airflow Stats Nominal, BUILDING STORY 4 THERMALZONE OUTPATIENT PACU C END_B - STORY MID2 INFILTRATION,ALWAYS ON DISCRETE,BUILDING STORY 4 THERMALZONE,3743.84,742.2,0.145,3.863E-005,3.159E-005,4.635E-002,0.000,0.000,0.224,0.000
 ZoneInfiltration Airflow Stats Nominal, BUILDING STORY 4 THERMALZONE OUTPATIENT XRAY A  - STORY MID2 INFILTRATION,ALWAYS ON DISCRETE,BUILDING STORY 4 THERMALZONE,3743.84,742.2,0.363,9.688E-005,7.923E-005,0.116,0.000,0.000,0.224,0.000
 ZoneInfiltration Airflow Stats Nominal, BUILDING STORY 4 THERMALZONE OUTPATIENT XRAY C  - STORY MID2 INFILTRATION,ALWAYS ON DISCRETE,BUILDING STORY 4 THERMALZONE,3743.84,742.2,0.363,9.688E-005,7.923E-005,0.116,0.000,0.000,0.224,0.000
 ZoneInfiltration Airflow Stats Nominal, BUILDING STORY 6 THERMALZONE OUTPATIENT OR A  - STORY MID3 INFILTRATION,ALWAYS ON DISCRETE,BUILDING STORY 6 THERMALZONE,3743.84,966.5,0.272,7.253E-005,5.931E-005,8.703E-002,0.000,0.000,0.224,0.000
 ZoneInfiltration Airflow Stats Nominal, BUILDING STORY 6 THERMALZONE OUTPATIENT OR C  - STORY MID3 INFILTRATION,ALWAYS ON DISCRETE,BUILDING STORY 6 THERMALZONE,3743.84,966.5,0.272,7.253E-005,5.931E-005,8.703E-002,0.000,0.000,0.224,0.000
 ZoneInfiltration Airflow Stats Nominal, BUILDING STORY 6 THERMALZONE OUTPATIENT PHYSICALTHERAPY A  - STORY MID3 INFILTRATION,ALWAYS ON DISCRETE,BUILDING STORY 6 THERMALZONE,3743.84,966.5,0.761,2.034E-004,1.663E-004,0.244,0.000,0.000,0.224,0.000
 ZoneInfiltration Airflow Stats Nominal, BUILDING STORY 6 THERMALZONE OUTPATIENT PHYSICALTHERAPY A END_A - STORY MID3 INFILTRATION,ALWAYS ON DISCRETE,BUILDING STORY 6 THERMALZONE,3743.84,966.5,0.145,3.863E-005,3.159E-005,4.635E-002,0.000,0.000,0.224,0.000
 ZoneInfiltration Airflow Stats Nominal, BUILDING STORY 6 THERMALZONE OUTPATIENT PHYSICALTHERAPY B END_A - STORY MID3 INFILTRATION,ALWAYS ON DISCRETE,BUILDING STORY 6 THERMALZONE,3743.84,966.5,0.366,9.764E-005,7.985E-005,0.117,0.000,0.000,0.224,0.000
 ZoneInfiltration Airflow Stats Nominal, BUILDING STORY 6 THERMALZONE OUTPATIENT PHYSICALTHERAPY C  - STORY MID3 INFILTRATION,ALWAYS ON DISCRETE,BUILDING STORY 6 THERMALZONE,3743.84,966.5,0.761,2.034E-004,1.663E-004,0.244,0.000,0.000,0.224,0.000
 ZoneInfiltration Airflow Stats Nominal, BUILDING STORY 6 THERMALZONE OUTPATIENT PHYSICALTHERAPY C END_A - STORY MID3 INFILTRATION,ALWAYS ON DISCRETE,BUILDING STORY 6 THERMALZONE,3743.84,966.5,0.145,3.863E-005,3.159E-005,4.635E-002,0.000,0.000,0.224,0.000
 ZoneInfiltration Airflow Stats Nominal, BUILDING STORY 6 THERMALZONE OUTPATIENT RECEPTION A  - STORY MID3 INFILTRATION,ALWAYS ON DISCRETE,BUILDING STORY 6 THERMALZONE,3743.84,966.5,0.659,1.761E-004,1.440E-004,0.211,0.000,0.000,0.224,0.000
 ZoneInfiltration Airflow Stats Nominal, BUILDING STORY 6 THERMALZONE OUTPATIENT RECEPTION A END_B - STORY MID3 INFILTRATION,ALWAYS ON DISCRETE,BUILDING STORY 6 THERMALZONE,3743.84,966.5,0.145,3.863E-005,3.159E-005,4.635E-002,0.000,0.000,0.224,0.000
 ZoneInfiltration Airflow Stats Nominal, BUILDING STORY 6 THERMALZONE OUTPATIENT RECEPTION B END_B - STORY MID3 INFILTRATION,ALWAYS ON DISCRETE,BUILDING STORY 6 THERMALZONE,3743.84,966.5,0.366,9.764E-005,7.985E-005,0.117,0.000,0.000,0.224,0.000
 ZoneInfiltration Airflow Stats Nominal, BUILDING STORY 6 THERMALZONE OUTPATIENT RECEPTION C  - STORY MID3 INFILTRATION,ALWAYS ON DISCRETE,BUILDING STORY 6 THERMALZONE,3743.84,966.5,0.659,1.761E-004,1.440E-004,0.211,0.000,0.000,0.224,0.000
 ZoneInfiltration Airflow Stats Nominal, BUILDING STORY 6 THERMALZONE OUTPATIENT RECEPTION C END_B - STORY MID3 INFILTRATION,ALWAYS ON DISCRETE,BUILDING STORY 6 THERMALZONE,3743.84,966.5,0.145,3.863E-005,3.159E-005,4.635E-002,0.000,0.000,0.224,0.000
 ZoneInfiltration Airflow Stats Nominal, BUILDING STORY 3 THERMALZONE OUTPATIENT EXAM A  - STORY MID4 INFILTRATION,ALWAYS ON DISCRETE,BUILDING STORY 3 THERMALZONE,3743.84,215.2,0.325,8.694E-005,7.109E-005,0.104,0.000,0.000,0.224,0.000
 ZoneInfiltration Airflow Stats Nominal, BUILDING STORY 3 THERMALZONE OUTPATIENT EXAM A END_B - STORY MID4 INFILTRATION,ALWAYS ON DISCRETE,BUILDING STORY 3 THERMALZONE,3743.84,215.2,0.145,3.863E-005,3.159E-005,4.635E-002,0.000,0.000,0.224,0.000
 ZoneInfiltration Airflow Stats Nominal, BUILDING STORY 3 THERMALZONE OUTPATIENT EXAM B END_B - STORY MID4 INFILTRATION,ALWAYS ON DISCRETE,BUILDING STORY 3 THERMALZONE,3743.84,215.2,0.366,9.764E-005,7.985E-005,0.117,0.000,0.000,0.224,0.000
 ZoneInfiltration Airflow Stats Nominal, BUILDING STORY 3 THERMALZONE OUTPATIENT EXAM C  - STORY MID4 INFILTRATION,ALWAYS ON DISCRETE,BUILDING STORY 3 THERMALZONE,3743.84,215.2,0.325,8.694E-005,7.109E-005,0.104,0.000,0.000,0.224,0.000
 ZoneInfiltration Airflow Stats Nominal, BUILDING STORY 3 THERMALZONE OUTPATIENT EXAM C END_B - STORY MID4 INFILTRATION,ALWAYS ON DISCRETE,BUILDING STORY 3 THERMALZONE,3743.84,215.2,0.145,3.863E-005,3.159E-005,4.635E-002,0.000,0.000,0.224,0.000
 ZoneInfiltration Airflow Stats Nominal, BUILDING STORY 3 THERMALZONE OUTPATIENT JANITOR A  - STORY MID4 INFILTRATION,ALWAYS ON DISCRETE,BUILDING STORY 3 THERMALZONE,3743.84,215.2,1.274,3.404E-004,2.784E-004,0.408,0.000,0.000,0.224,0.000
 ZoneInfiltration Airflow Stats Nominal, BUILDING STORY 3 THERMALZONE OUTPATIENT JANITOR A END_A - STORY MID4 INFILTRATION,ALWAYS ON DISCRETE,BUILDING STORY 3 THERMALZONE,3743.84,215.2,0.145,3.863E-005,3.159E-005,4.635E-002,0.000,0.000,0.224,0.000
 ZoneInfiltration Airflow Stats Nominal, BUILDING STORY 3 THERMALZONE OUTPATIENT JANITOR B END_A - STORY MID4 INFILTRATION,ALWAYS ON DISCRETE,BUILDING STORY 3 THERMALZONE,3743.84,215.2,0.366,9.764E-005,7.985E-005,0.117,0.000,0.000,0.224,0.000
 ZoneInfiltration Airflow Stats Nominal, BUILDING STORY 3 THERMALZONE OUTPATIENT JANITOR C  - STORY MID4 INFILTRATION,ALWAYS ON DISCRETE,BUILDING STORY 3 THERMALZONE,3743.84,215.2,1.274,3.404E-004,2.784E-004,0.408,0.000,0.000,0.224,0.000
 ZoneInfiltration Airflow Stats Nominal, BUILDING STORY 3 THERMALZONE OUTPATIENT JANITOR C END_A - STORY MID4 INFILTRATION,ALWAYS ON DISCRETE,BUILDING STORY 3 THERMALZONE,3743.84,215.2,0.145,3.863E-005,3.159E-005,4.635E-002,0.000,0.000,0.224,0.000
 ZoneInfiltration Airflow Stats Nominal, BUILDING STORY 3 THERMALZONE OUTPATIENT PHYSICALTHERAPY A  - STORY MID4 INFILTRATION,ALWAYS ON DISCRETE,BUILDING STORY 3 THERMALZONE,3743.84,215.2,9.218E-002,2.462E-005,2.014E-005,2.955E-002,0.000,0.000,0.224,0.000
 ZoneInfiltration Airflow Stats Nominal, BUILDING STORY 3 THERMALZONE OUTPATIENT PHYSICALTHERAPY C  - STORY MID4 INFILTRATION,ALWAYS ON DISCRETE,BUILDING STORY 3 THERMALZONE,3743.84,215.2,9.218E-002,2.462E-005,2.014E-005,2.955E-002,0.000,0.000,0.224,0.000
 ZoneInfiltration Airflow Stats Nominal, BUILDING STORY 8 THERMALZONE OUTPATIENT EXAM A  - STORY MID5 INFILTRATION,ALWAYS ON DISCRETE,BUILDING STORY 8 THERMALZONE,3743.84,750.0,0.290,7.748E-005,3.477E-004,9.298E-002,0.000,0.000,0.224,0.000
 ZoneInfiltration Airflow Stats Nominal, BUILDING STORY 8 THERMALZONE OUTPATIENT EXAM A END_A - STORY MID5 INFILTRATION,ALWAYS ON DISCRETE,BUILDING STORY 8 THERMALZONE,3743.84,750.0,2.635E-002,7.039E-006,3.159E-005,8.447E-003,0.000,0.000,0.224,0.000
 ZoneInfiltration Airflow Stats Nominal, BUILDING STORY 8 THERMALZONE OUTPATIENT EXAM B END_A - STORY MID5 INFILTRATION,ALWAYS ON DISCRETE,BUILDING STORY 8 THERMALZONE,3743.84,750.0,6.661E-002,1.779E-005,7.985E-005,2.135E-002,0.000,0.000,0.224,0.000
 ZoneInfiltration Airflow Stats Nominal, BUILDING STORY 8 THERMALZONE OUTPATIENT EXAM C  - STORY MID5 INFILTRATION,ALWAYS ON DISCRETE,BUILDING STORY 8 THERMALZONE,3743.84,750.0,0.290,7.748E-005,3.477E-004,9.298E-002,0.000,0.000,0.224,0.000
 ZoneInfiltration Airflow Stats Nominal, BUILDING STORY 8 THERMALZONE OUTPATIENT EXAM C END_A - STORY MID5 INFILTRATION,ALWAYS ON DISCRETE,BUILDING STORY 8 THERMALZONE,3743.84,750.0,2.635E-002,7.039E-006,3.159E-005,8.447E-003,0.000,0.000,0.224,0.000
 ZoneInfiltration Airflow Stats Nominal, BUILDING STORY 8 THERMALZONE OUTPATIENT OFFICE A  - STORY MID5 INFILTRATION,ALWAYS ON DISCRETE,BUILDING STORY 8 THERMALZONE,3743.84,750.0,1.823E-002,4.869E-006,2.185E-005,5.842E-003,0.000,0.000,0.224,0.000
 ZoneInfiltration Airflow Stats Nominal, BUILDING STORY 8 THERMALZONE OUTPATIENT OFFICE A END_B - STORY MID5 INFILTRATION,ALWAYS ON DISCRETE,BUILDING STORY 8 THERMALZONE,3743.84,750.0,2.635E-002,7.039E-006,3.159E-005,8.447E-003,0.000,0.000,0.224,0.000
 ZoneInfiltration Airflow Stats Nominal, BUILDING STORY 8 THERMALZONE OUTPATIENT OFFICE B END_B - STORY MID5 INFILTRATION,ALWAYS ON DISCRETE,BUILDING STORY 8 THERMALZONE,3743.84,750.0,6.661E-002,1.779E-005,7.985E-005,2.135E-002,0.000,0.000,0.224,0.000
 ZoneInfiltration Airflow Stats Nominal, BUILDING STORY 8 THERMALZONE OUTPATIENT OFFICE C  - STORY MID5 INFILTRATION,ALWAYS ON DISCRETE,BUILDING STORY 8 THERMALZONE,3743.84,750.0,1.823E-002,4.869E-006,2.185E-005,5.842E-003,0.000,0.000,0.224,0.000
 ZoneInfiltration Airflow Stats Nominal, BUILDING STORY 8 THERMALZONE OUTPATIENT OFFICE C END_B - STORY MID5 INFILTRATION,ALWAYS ON DISCRETE,BUILDING STORY 8 THERMALZONE,3743.84,750.0,2.635E-002,7.039E-006,3.159E-005,8.447E-003,0.000,0.000,0.224,0.000
 ZoneInfiltration Airflow Stats Nominal, BUILDING STORY 5 THERMALZONE OUTPATIENT OFFICE A  - STORY MID6 INFILTRATION,ALWAYS ON DISCRETE,BUILDING STORY 5 THERMALZONE,3743.84,201.5,0.308,8.235E-005,3.696E-004,9.882E-002,0.000,0.000,0.224,0.000
 ZoneInfiltration Airflow Stats Nominal, BUILDING STORY 5 THERMALZONE OUTPATIENT OFFICE A END_A - STORY MID6 INFILTRATION,ALWAYS ON DISCRETE,BUILDING STORY 5 THERMALZONE,3743.84,201.5,2.635E-002,7.039E-006,3.159E-005,8.447E-003,0.000,0.000,0.224,0.000
 ZoneInfiltration Airflow Stats Nominal, BUILDING STORY 5 THERMALZONE OUTPATIENT OFFICE A END_B - STORY MID6 INFILTRATION,ALWAYS ON DISCRETE,BUILDING STORY 5 THERMALZONE,3743.84,201.5,2.635E-002,7.039E-006,3.159E-005,8.447E-003,0.000,0.000,0.224,0.000
 ZoneInfiltration Airflow Stats Nominal, BUILDING STORY 5 THERMALZONE OUTPATIENT OFFICE B END_A - STORY MID6 INFILTRATION,ALWAYS ON DISCRETE,BUILDING STORY 5 THERMALZONE,3743.84,201.5,6.661E-002,1.779E-005,7.985E-005,2.135E-002,0.000,0.000,0.224,0.000
 ZoneInfiltration Airflow Stats Nominal, BUILDING STORY 5 THERMALZONE OUTPATIENT OFFICE B END_B - STORY MID6 INFILTRATION,ALWAYS ON DISCRETE,BUILDING STORY 5 THERMALZONE,3743.84,201.5,6.661E-002,1.779E-005,7.985E-005,2.135E-002,0.000,0.000,0.224,0.000
 ZoneInfiltration Airflow Stats Nominal, BUILDING STORY 5 THERMALZONE OUTPATIENT OFFICE C  - STORY MID6 INFILTRATION,ALWAYS ON DISCRETE,BUILDING STORY 5 THERMALZONE,3743.84,201.5,0.308,8.235E-005,3.696E-004,9.882E-002,0.000,0.000,0.224,0.000
 ZoneInfiltration Airflow Stats Nominal, BUILDING STORY 5 THERMALZONE OUTPATIENT OFFICE C END_A - STORY MID6 INFILTRATION,ALWAYS ON DISCRETE,BUILDING STORY 5 THERMALZONE,3743.84,201.5,2.635E-002,7.039E-006,3.159E-005,8.447E-003,0.000,0.000,0.224,0.000
 ZoneInfiltration Airflow Stats Nominal, BUILDING STORY 5 THERMALZONE OUTPATIENT OFFICE C END_B - STORY MID6 INFILTRATION,ALWAYS ON DISCRETE,BUILDING STORY 5 THERMALZONE,3743.84,201.5,2.635E-002,7.039E-006,3.159E-005,8.447E-003,0.000,0.000,0.224,0.000
 ZoneInfiltration Airflow Stats Nominal, BUILDING STORY 7 THERMALZONE OUTPATIENT HALL A  - STORY MID7 INFILTRATION,ALWAYS ON DISCRETE,BUILDING STORY 7 THERMALZONE,3743.84,181.5,2.005E-002,5.356E-006,2.404E-005,6.428E-003,0.000,0.000,0.224,0.000
 ZoneInfiltration Airflow Stats Nominal, BUILDING STORY 7 THERMALZONE OUTPATIENT HALL A END_B - STORY MID7 INFILTRATION,ALWAYS ON DISCRETE,BUILDING STORY 7 THERMALZONE,3743.84,181.5,2.635E-002,7.039E-006,3.159E-005,8.447E-003,0.000,0.000,0.224,0.000
 ZoneInfiltration Airflow Stats Nominal, BUILDING STORY 7 THERMALZONE OUTPATIENT HALL B END_B - STORY MID7 INFILTRATION,ALWAYS ON DISCRETE,BUILDING STORY 7 THERMALZONE,3743.84,181.5,6.661E-002,1.779E-005,7.985E-005,2.135E-002,0.000,0.000,0.224,0.000
 ZoneInfiltration Airflow Stats Nominal, BUILDING STORY 7 THERMALZONE OUTPATIENT HALL C  - STORY MID7 INFILTRATION,ALWAYS ON DISCRETE,BUILDING STORY 7 THERMALZONE,3743.84,181.5,2.005E-002,5.356E-006,2.404E-005,6.428E-003,0.000,0.000,0.224,0.000
 ZoneInfiltration Airflow Stats Nominal, BUILDING STORY 7 THERMALZONE OUTPATIENT HALL C END_B - STORY MID7 INFILTRATION,ALWAYS ON DISCRETE,BUILDING STORY 7 THERMALZONE,3743.84,181.5,2.635E-002,7.039E-006,3.159E-005,8.447E-003,0.000,0.000,0.224,0.000
 ZoneInfiltration Airflow Stats Nominal, BUILDING STORY 7 THERMALZONE OUTPATIENT OFFICE A  - STORY MID7 INFILTRATION,ALWAYS ON DISCRETE,BUILDING STORY 7 THERMALZONE,3743.84,181.5,0.288,7.700E-005,3.455E-004,9.240E-002,0.000,0.000,0.224,0.000
 ZoneInfiltration Airflow Stats Nominal, BUILDING STORY 7 THERMALZONE OUTPATIENT OFFICE A END_A - STORY MID7 INFILTRATION,ALWAYS ON DISCRETE,BUILDING STORY 7 THERMALZONE,3743.84,181.5,2.635E-002,7.039E-006,3.159E-005,8.447E-003,0.000,0.000,0.224,0.000
 ZoneInfiltration Airflow Stats Nominal, BUILDING STORY 7 THERMALZONE OUTPATIENT OFFICE B END_A - STORY MID7 INFILTRATION,ALWAYS ON DISCRETE,BUILDING STORY 7 THERMALZONE,3743.84,181.5,6.661E-002,1.779E-005,7.985E-005,2.135E-002,0.000,0.000,0.224,0.000
 ZoneInfiltration Airflow Stats Nominal, BUILDING STORY 7 THERMALZONE OUTPATIENT OFFICE C  - STORY MID7 INFILTRATION,ALWAYS ON DISCRETE,BUILDING STORY 7 THERMALZONE,3743.84,181.5,0.288,7.700E-005,3.455E-004,9.240E-002,0.000,0.000,0.224,0.000
 ZoneInfiltration Airflow Stats Nominal, BUILDING STORY 7 THERMALZONE OUTPATIENT OFFICE C END_A - STORY MID7 INFILTRATION,ALWAYS ON DISCRETE,BUILDING STORY 7 THERMALZONE,3743.84,181.5,2.635E-002,7.039E-006,3.159E-005,8.447E-003,0.000,0.000,0.224,0.000
 ZoneInfiltration Airflow Stats Nominal, BUILDING STORY 9 THERMALZONE OUTPATIENT HALL A  - STORY MID8 INFILTRATION,ALWAYS ON DISCRETE,BUILDING STORY 9 THERMALZONE,3743.84,0.0,0.308,8.235E-005,3.696E-004,9.882E-002,0.000,0.000,0.224,0.000
 ZoneInfiltration Airflow Stats Nominal, BUILDING STORY 9 THERMALZONE OUTPATIENT HALL A END_A - STORY MID8 INFILTRATION,ALWAYS ON DISCRETE,BUILDING STORY 9 THERMALZONE,3743.84,0.0,2.635E-002,7.039E-006,3.159E-005,8.447E-003,0.000,0.000,0.224,0.000
 ZoneInfiltration Airflow Stats Nominal, BUILDING STORY 9 THERMALZONE OUTPATIENT HALL A END_B - STORY MID8 INFILTRATION,ALWAYS ON DISCRETE,BUILDING STORY 9 THERMALZONE,3743.84,0.0,2.635E-002,7.039E-006,3.159E-005,8.447E-003,0.000,0.000,0.224,0.000
 ZoneInfiltration Airflow Stats Nominal, BUILDING STORY 9 THERMALZONE OUTPATIENT HALL B END_A - STORY MID8 INFILTRATION,ALWAYS ON DISCRETE,BUILDING STORY 9 THERMALZONE,3743.84,0.0,6.661E-002,1.779E-005,7.985E-005,2.135E-002,0.000,0.000,0.224,0.000
 ZoneInfiltration Airflow Stats Nominal, BUILDING STORY 9 THERMALZONE OUTPATIENT HALL B END_B - STORY MID8 INFILTRATION,ALWAYS ON DISCRETE,BUILDING STORY 9 THERMALZONE,3743.84,0.0,6.661E-002,1.779E-005,7.985E-005,2.135E-002,0.000,0.000,0.224,0.000
 ZoneInfiltration Airflow Stats Nominal, BUILDING STORY 9 THERMALZONE OUTPATIENT HALL C  - STORY MID8 INFILTRATION,ALWAYS ON DISCRETE,BUILDING STORY 9 THERMALZONE,3743.84,0.0,0.308,8.235E-005,3.696E-004,9.882E-002,0.000,0.000,0.224,0.000
 ZoneInfiltration Airflow Stats Nominal, BUILDING STORY 9 THERMALZONE OUTPATIENT HALL C END_A - STORY MID8 INFILTRATION,ALWAYS ON DISCRETE,BUILDING STORY 9 THERMALZONE,3743.84,0.0,2.635E-002,7.039E-006,3.159E-005,8.447E-003,0.000,0.000,0.224,0.000
 ZoneInfiltration Airflow Stats Nominal, BUILDING STORY 9 THERMALZONE OUTPATIENT HALL C END_B - STORY MID8 INFILTRATION,ALWAYS ON DISCRETE,BUILDING STORY 9 THERMALZONE,3743.84,0.0,2.635E-002,7.039E-006,3.159E-005,8.447E-003,0.000,0.000,0.224,0.000
 ZoneInfiltration Airflow Stats Nominal, BUILDING STORY 10 THERMALZONE OUTPATIENT HALL A  - STORY TOP INFILTRATION,ALWAYS ON DISCRETE,BUILDING STORY 10 THERMALZONE,3743.84,0.0,0.329,8.791E-005,7.189E-005,0.105,0.000,0.000,0.224,0.000
 ZoneInfiltration Airflow Stats Nominal, BUILDING STORY 10 THERMALZONE OUTPATIENT HALL A END_A - STORY TOP INFILTRATION,ALWAYS ON DISCRETE,BUILDING STORY 10 THERMALZONE,3743.84,0.0,2.813E-002,7.514E-006,6.144E-006,9.016E-003,0.000,0.000,0.224,0.000
 ZoneInfiltration Airflow Stats Nominal, BUILDING STORY 10 THERMALZONE OUTPATIENT HALL A END_B - STORY TOP INFILTRATION,ALWAYS ON DISCRETE,BUILDING STORY 10 THERMALZONE,3743.84,0.0,2.813E-002,7.514E-006,6.144E-006,9.016E-003,0.000,0.000,0.224,0.000
 ZoneInfiltration Airflow Stats Nominal, BUILDING STORY 10 THERMALZONE OUTPATIENT HALL B END_A - STORY TOP INFILTRATION,ALWAYS ON DISCRETE,BUILDING STORY 10 THERMALZONE,3743.84,0.0,7.110E-002,1.899E-005,1.553E-005,2.279E-002,0.000,0.000,0.224,0.000
 ZoneInfiltration Airflow Stats Nominal, BUILDING STORY 10 THERMALZONE OUTPATIENT HALL B END_B - STORY TOP INFILTRATION,ALWAYS ON DISCRETE,BUILDING STORY 10 THERMALZONE,3743.84,0.0,7.110E-002,1.899E-005,1.553E-005,2.279E-002,0.000,0.000,0.224,0.000
 ZoneInfiltration Airflow Stats Nominal, BUILDING STORY 10 THERMALZONE OUTPATIENT HALL C  - STORY TOP INFILTRATION,ALWAYS ON DISCRETE,BUILDING STORY 10 THERMALZONE,3743.84,0.0,0.329,8.791E-005,7.189E-005,0.105,0.000,0.000,0.224,0.000
 ZoneInfiltration Airflow Stats Nominal, BUILDING STORY 10 THERMALZONE OUTPATIENT HALL C END_A - STORY TOP INFILTRATION,ALWAYS ON DISCRETE,BUILDING STORY 10 THERMALZONE,3743.84,0.0,2.813E-002,7.514E-006,6.144E-006,9.016E-003,0.000,0.000,0.224,0.000
 ZoneInfiltration Airflow Stats Nominal, BUILDING STORY 10 THERMALZONE OUTPATIENT HALL C END_B - STORY TOP INFILTRATION,ALWAYS ON DISCRETE,BUILDING STORY 10 THERMALZONE,3743.84,0.0,2.813E-002,7.514E-006,6.144E-006,9.016E-003,0.000,0.000,0.224,0.000
! <AirFlow Model>, Simple
 AirFlow Model, Simple
! <RoomAir Model>, Zone Name, Mixing/Mundt/UCSDDV/UCSDCV/UCSDUFI/UCSDUFE/User Defined
RoomAir Model,BUILDING STORY 1 THERMALZONE,Mixing/Well-Stirred
RoomAir Model,BUILDING STORY 10 THERMALZONE,Mixing/Well-Stirred
RoomAir Model,BUILDING STORY 2 THERMALZONE,Mixing/Well-Stirred
RoomAir Model,BUILDING STORY 3 THERMALZONE,Mixing/Well-Stirred
RoomAir Model,BUILDING STORY 4 THERMALZONE,Mixing/Well-Stirred
RoomAir Model,BUILDING STORY 5 THERMALZONE,Mixing/Well-Stirred
RoomAir Model,BUILDING STORY 6 THERMALZONE,Mixing/Well-Stirred
RoomAir Model,BUILDING STORY 7 THERMALZONE,Mixing/Well-Stirred
RoomAir Model,BUILDING STORY 8 THERMALZONE,Mixing/Well-Stirred
RoomAir Model,BUILDING STORY 9 THERMALZONE,Mixing/Well-Stirred
! <AirflowNetwork Model:Control>, No Multizone or Distribution/Multizone with Distribution/Multizone without Distribution/Multizone with Distribution only during Fan Operation
AirflowNetwork Model:Control,NoMultizoneOrDistribution
! <Zone Volume Capacitance Multiplier>, Sensible Heat Capacity Multiplier, Moisture Capacity Multiplier, Carbon Dioxide Capacity Multiplier, Generic Contaminant Capacity Multiplier
Zone Volume Capacitance Multiplier,   1.000 ,   1.000,   1.000,   1.000
! <Load Timesteps in Zone Design Calculation Averaging Window>, Value
 Load Timesteps in Zone Design Calculation Averaging Window,    1
! <Heating Sizing Factor Information>, Sizing Factor ID, Value
 Heating Sizing Factor Information, Global,   1.2500    
 Heating Sizing Factor Information, Zone BUILDING STORY 1 THERMALZONE,   1.2500    
 Heating Sizing Factor Information, Zone BUILDING STORY 10 THERMALZONE,   1.2500    
 Heating Sizing Factor Information, Zone BUILDING STORY 2 THERMALZONE,   1.2500    
 Heating Sizing Factor Information, Zone BUILDING STORY 3 THERMALZONE,   1.2500    
 Heating Sizing Factor Information, Zone BUILDING STORY 4 THERMALZONE,   1.2500    
 Heating Sizing Factor Information, Zone BUILDING STORY 5 THERMALZONE,   1.2500    
 Heating Sizing Factor Information, Zone BUILDING STORY 6 THERMALZONE,   1.2500    
 Heating Sizing Factor Information, Zone BUILDING STORY 7 THERMALZONE,   1.2500    
 Heating Sizing Factor Information, Zone BUILDING STORY 8 THERMALZONE,   1.2500    
 Heating Sizing Factor Information, Zone BUILDING STORY 9 THERMALZONE,   1.2500    
! <Cooling Sizing Factor Information>, Sizing Factor ID, Value
 Cooling Sizing Factor Information, Global,   1.1500    
 Cooling Sizing Factor Information, Zone BUILDING STORY 1 THERMALZONE,   1.1500    
 Cooling Sizing Factor Information, Zone BUILDING STORY 10 THERMALZONE,   1.1500    
 Cooling Sizing Factor Information, Zone BUILDING STORY 2 THERMALZONE,   1.1500    
[...]
Water Heating Coil Capacity Information,Coil:Heating:Water,1 ZONE VAV 1 MAIN HTG COIL,13155.56
 Component Sizing Information, Fan:VariableVolume, 1 ZONE VAV 1 FAN, Design Size Maximum Flow Rate [m3/s], 11.53079
 Component Sizing Information, Controller:WaterCoil, 1 ZONE VAV 1 CLG COIL CONTROLLER, Maximum Actuated Flow [m3/s], 8.05574E-003
 Component Sizing Information, Controller:WaterCoil, 1 ZONE VAV 1 CLG COIL CONTROLLER, Controller Convergence Tolerance, 5.91119E-005
 Component Sizing Information, Controller:WaterCoil, 1 ZONE VAV 1 MAIN HTG COIL CONTROLLER, Maximum Actuated Flow [m3/s], 3.19881E-004
 Component Sizing Information, Controller:OutdoorAir, 1 ZONE VAV 2 OA CONTROLLER, Maximum Outdoor Air Flow Rate [m3/s], 26.30653
 Component Sizing Information, Controller:OutdoorAir, 1 ZONE VAV 2 OA CONTROLLER, Minimum Outdoor Air Flow Rate [m3/s], 10.81828
 Component Sizing Information, Coil:Cooling:Water, 1 ZONE VAV 2 CLG COIL, Design Size Design Inlet Air Temperature [C], 25.62411
 Component Sizing Information, Coil:Cooling:Water, 1 ZONE VAV 2 CLG COIL, Design Size Design Inlet Water Temperature [C], 6.66667
 Component Sizing Information, Coil:Cooling:Water, 1 ZONE VAV 2 CLG COIL, Design Size Design Outlet Air Temperature [C], 10.89760
 Component Sizing Information, Coil:Cooling:Water, 1 ZONE VAV 2 CLG COIL, Design Size Design Inlet Air Humidity Ratio [kgWater/kgDryAir], 1.09479E-002
 Component Sizing Information, Coil:Cooling:Water, 1 ZONE VAV 2 CLG COIL, Design Size Design Outlet Air Humidity Ratio [kgWater/kgDryAir], 8.50000E-003
 Component Sizing Information, Coil:Cooling:Water, 1 ZONE VAV 2 CLG COIL, Design Size Design Coil Load [W], 656829.98279
 Component Sizing Information, Coil:Cooling:Water, 1 ZONE VAV 2 CLG COIL, Design Size Design Water Flow Rate [m3/s], 2.78877E-002
 Component Sizing Information, Coil:Cooling:Water, 1 ZONE VAV 2 CLG COIL, Design Size Design Air Flow Rate [m3/s], 26.30653
Water Cooling Coil Capacity Information,Coil:Cooling:Water,1 ZONE VAV 2 CLG COIL,707616.48,473250.59,234365.89,0.67,75603.15,766.81
 Component Sizing Information, Coil:Heating:Water, 1 ZONE VAV 2 MAIN HTG COIL, Design Size Rated Capacity [W], 270701.99276
 Component Sizing Information, Coil:Heating:Water, 1 ZONE VAV 2 MAIN HTG COIL, Design Size Maximum Water Flow Rate [m3/s], 5.92102E-003
 Component Sizing Information, Coil:Heating:Water, 1 ZONE VAV 2 MAIN HTG COIL, Design Size U-Factor Times Area Value [W/K], 3556.59147
Water Heating Coil Capacity Information,Coil:Heating:Water,1 ZONE VAV 2 MAIN HTG COIL,180724.96
 Component Sizing Information, Fan:VariableVolume, 1 ZONE VAV 2 FAN, Design Size Maximum Flow Rate [m3/s], 26.30653
 Component Sizing Information, Controller:WaterCoil, 1 ZONE VAV 2 CLG COIL CONTROLLER, Maximum Actuated Flow [m3/s], 2.78877E-002
 Component Sizing Information, Controller:WaterCoil, 1 ZONE VAV 2 CLG COIL CONTROLLER, Controller Convergence Tolerance, 1.70753E-005
 Component Sizing Information, Controller:WaterCoil, 1 ZONE VAV 2 MAIN HTG COIL CONTROLLER, Maximum Actuated Flow [m3/s], 5.92102E-003
 Component Sizing Information, Controller:OutdoorAir, 1 ZONE VAV 3 OA CONTROLLER, Maximum Outdoor Air Flow Rate [m3/s], 13.90748
 Component Sizing Information, Controller:OutdoorAir, 1 ZONE VAV 3 OA CONTROLLER, Minimum Outdoor Air Flow Rate [m3/s], 3.77615
 Component Sizing Information, Coil:Cooling:Water, 1 ZONE VAV 3 CLG COIL, Design Size Design Inlet Air Temperature [C], 24.39229
 Component Sizing Information, Coil:Cooling:Water, 1 ZONE VAV 3 CLG COIL, Design Size Design Inlet Water Temperature [C], 6.66667
 Component Sizing Information, Coil:Cooling:Water, 1 ZONE VAV 3 CLG COIL, Design Size Design Outlet Air Temperature [C], 10.86585
 Component Sizing Information, Coil:Cooling:Water, 1 ZONE VAV 3 CLG COIL, Design Size Design Inlet Air Humidity Ratio [kgWater/kgDryAir], 1.05360E-002
 Component Sizing Information, Coil:Cooling:Water, 1 ZONE VAV 3 CLG COIL, Design Size Design Outlet Air Humidity Ratio [kgWater/kgDryAir], 8.50000E-003
 Component Sizing Information, Coil:Cooling:Water, 1 ZONE VAV 3 CLG COIL, Design Size Design Coil Load [W], 310036.88887
 Component Sizing Information, Coil:Cooling:Water, 1 ZONE VAV 3 CLG COIL, Design Size Design Water Flow Rate [m3/s], 1.31636E-002
 Component Sizing Information, Coil:Cooling:Water, 1 ZONE VAV 3 CLG COIL, Design Size Design Air Flow Rate [m3/s], 13.90748
Water Cooling Coil Capacity Information,Coil:Cooling:Water,1 ZONE VAV 3 CLG COIL,358781.29,243267.20,115514.09,0.68,38476.12,390.25
 Component Sizing Information, Coil:Heating:Water, 1 ZONE VAV 3 MAIN HTG COIL, Design Size Rated Capacity [W], 126778.37164
 Component Sizing Information, Coil:Heating:Water, 1 ZONE VAV 3 MAIN HTG COIL, Design Size Maximum Water Flow Rate [m3/s], 2.77300E-003
 Component Sizing Information, Coil:Heating:Water, 1 ZONE VAV 3 MAIN HTG COIL, Design Size U-Factor Times Area Value [W/K], 1702.47186
Water Heating Coil Capacity Information,Coil:Heating:Water,1 ZONE VAV 3 MAIN HTG COIL,87571.81
 Component Sizing Information, Fan:VariableVolume, 1 ZONE VAV 3 FAN, Design Size Maximum Flow Rate [m3/s], 13.90748
 Component Sizing Information, Controller:WaterCoil, 1 ZONE VAV 3 CLG COIL CONTROLLER, Maximum Actuated Flow [m3/s], 1.31636E-002
 Component Sizing Information, Controller:WaterCoil, 1 ZONE VAV 3 CLG COIL CONTROLLER, Controller Convergence Tolerance, 3.61749E-005
 Component Sizing Information, Controller:WaterCoil, 1 ZONE VAV 3 MAIN HTG COIL CONTROLLER, Maximum Actuated Flow [m3/s], 2.77300E-003
 Component Sizing Information, Controller:OutdoorAir, 1 ZONE VAV 4 OA CONTROLLER, Maximum Outdoor Air Flow Rate [m3/s], 34.94374
 Component Sizing Information, Controller:OutdoorAir, 1 ZONE VAV 4 OA CONTROLLER, Minimum Outdoor Air Flow Rate [m3/s], 10.35134
 Component Sizing Information, Coil:Cooling:Water, 1 ZONE VAV 4 CLG COIL, Design Size Design Inlet Air Temperature [C], 24.58944
 Component Sizing Information, Coil:Cooling:Water, 1 ZONE VAV 4 CLG COIL, Design Size Design Inlet Water Temperature [C], 6.66667
 Component Sizing Information, Coil:Cooling:Water, 1 ZONE VAV 4 CLG COIL, Design Size Design Outlet Air Temperature [C], 10.89578
 Component Sizing Information, Coil:Cooling:Water, 1 ZONE VAV 4 CLG COIL, Design Size Design Inlet Air Humidity Ratio [kgWater/kgDryAir], 1.04129E-002
 Component Sizing Information, Coil:Cooling:Water, 1 ZONE VAV 4 CLG COIL, Design Size Design Outlet Air Humidity Ratio [kgWater/kgDryAir], 8.50000E-003
 Component Sizing Information, Coil:Cooling:Water, 1 ZONE VAV 4 CLG COIL, Design Size Design Coil Load [W], 773157.70677
 Component Sizing Information, Coil:Cooling:Water, 1 ZONE VAV 4 CLG COIL, Design Size Design Water Flow Rate [m3/s], 3.28268E-002
 Component Sizing Information, Coil:Cooling:Water, 1 ZONE VAV 4 CLG COIL, Design Size Design Air Flow Rate [m3/s], 34.94374
Water Cooling Coil Capacity Information,Coil:Cooling:Water,1 ZONE VAV 4 CLG COIL,897191.78,609169.15,288022.63,0.68,95938.05,973.06
 Component Sizing Information, Coil:Heating:Water, 1 ZONE VAV 4 MAIN HTG COIL, Design Size Rated Capacity [W], 354206.89934
 Component Sizing Information, Coil:Heating:Water, 1 ZONE VAV 4 MAIN HTG COIL, Design Size Maximum Water Flow Rate [m3/s], 7.74751E-003
 Component Sizing Information, Coil:Heating:Water, 1 ZONE VAV 4 MAIN HTG COIL, Design Size U-Factor Times Area Value [W/K], 4666.76075
Water Heating Coil Capacity Information,Coil:Heating:Water,1 ZONE VAV 4 MAIN HTG COIL,237514.90
 Component Sizing Information, Fan:VariableVolume, 1 ZONE VAV 4 FAN, Design Size Maximum Flow Rate [m3/s], 34.94374
 Component Sizing Information, Controller:WaterCoil, 1 ZONE VAV 4 CLG COIL CONTROLLER, Maximum Actuated Flow [m3/s], 3.28268E-002
 Component Sizing Information, Controller:WaterCoil, 1 ZONE VAV 4 CLG COIL CONTROLLER, Controller Convergence Tolerance, 1.45062E-005
 Component Sizing Information, Controller:WaterCoil, 1 ZONE VAV 4 MAIN HTG COIL CONTROLLER, Maximum Actuated Flow [m3/s], 7.74751E-003
 Component Sizing Information, Controller:OutdoorAir, 1 ZONE VAV 5 OA CONTROLLER, Maximum Outdoor Air Flow Rate [m3/s], 13.57343
 Component Sizing Information, Controller:OutdoorAir, 1 ZONE VAV 5 OA CONTROLLER, Minimum Outdoor Air Flow Rate [m3/s], 1.90187
 Component Sizing Information, Coil:Cooling:Water, 1 ZONE VAV 5 CLG COIL, Design Size Design Inlet Air Temperature [C], 22.83584
 Component Sizing Information, Coil:Cooling:Water, 1 ZONE VAV 5 CLG COIL, Design Size Design Inlet Water Temperature [C], 6.66667
 Component Sizing Information, Coil:Cooling:Water, 1 ZONE VAV 5 CLG COIL, Design Size Design Outlet Air Temperature [C], 10.86222
 Component Sizing Information, Coil:Cooling:Water, 1 ZONE VAV 5 CLG COIL, Design Size Design Inlet Air Humidity Ratio [kgWater/kgDryAir], 9.49272E-003
 Component Sizing Information, Coil:Cooling:Water, 1 ZONE VAV 5 CLG COIL, Design Size Design Outlet Air Humidity Ratio [kgWater/kgDryAir], 8.50000E-003
 Component Sizing Information, Coil:Cooling:Water, 1 ZONE VAV 5 CLG COIL, Design Size Design Coil Load [W], 234960.04761
 Component Sizing Information, Coil:Cooling:Water, 1 ZONE VAV 5 CLG COIL, Design Size Design Water Flow Rate [m3/s], 9.97595E-003
 Component Sizing Information, Coil:Cooling:Water, 1 ZONE VAV 5 CLG COIL, Design Size Design Air Flow Rate [m3/s], 13.57343
Water Cooling Coil Capacity Information,Coil:Cooling:Water,1 ZONE VAV 5 CLG COIL,313574.20,220907.71,92666.49,0.70,34092.84,345.79
 Component Sizing Information, Coil:Heating:Water, 1 ZONE VAV 5 MAIN HTG COIL, Design Size Rated Capacity [W], 51116.84837
 Component Sizing Information, Coil:Heating:Water, 1 ZONE VAV 5 MAIN HTG COIL, Design Size Maximum Water Flow Rate [m3/s], 1.11807E-003
 Component Sizing Information, Coil:Heating:Water, 1 ZONE VAV 5 MAIN HTG COIL, Design Size U-Factor Times Area Value [W/K], 771.49251
Water Heating Coil Capacity Information,Coil:Heating:Water,1 ZONE VAV 5 MAIN HTG COIL,41931.74
 Component Sizing Information, Fan:VariableVolume, 1 ZONE VAV 5 FAN, Design Size Maximum Flow Rate [m3/s], 13.57343
 Component Sizing Information, Controller:WaterCoil, 1 ZONE VAV 5 CLG COIL CONTROLLER, Maximum Actuated Flow [m3/s], 9.97595E-003
 Component Sizing Information, Controller:WaterCoil, 1 ZONE VAV 5 CLG COIL CONTROLLER, Controller Convergence Tolerance, 4.77338E-005
 Component Sizing Information, Controller:WaterCoil, 1 ZONE VAV 5 MAIN HTG COIL CONTROLLER, Maximum Actuated Flow [m3/s], 1.11807E-003
 Component Sizing Information, Controller:OutdoorAir, 1 ZONE VAV 6 OA CONTROLLER, Maximum Outdoor Air Flow Rate [m3/s], 27.82563
 Component Sizing Information, Controller:OutdoorAir, 1 ZONE VAV 6 OA CONTROLLER, Minimum Outdoor Air Flow Rate [m3/s], 10.55704
 Component Sizing Information, Coil:Cooling:Water, 1 ZONE VAV 6 CLG COIL, Design Size Design Inlet Air Temperature [C], 25.26235
 Component Sizing Information, Coil:Cooling:Water, 1 ZONE VAV 6 CLG COIL, Design Size Design Inlet Water Temperature [C], 6.66667
 Component Sizing Information, Coil:Cooling:Water, 1 ZONE VAV 6 CLG COIL, Design Size Design Outlet Air Temperature [C], 10.89766
 Component Sizing Information, Coil:Cooling:Water, 1 ZONE VAV 6 CLG COIL, Design Size Design Inlet Air Humidity Ratio [kgWater/kgDryAir], 1.09631E-002
 Component Sizing Information, Coil:Cooling:Water, 1 ZONE VAV 6 CLG COIL, Design Size Design Outlet Air Humidity Ratio [kgWater/kgDryAir], 8.50000E-003
 Component Sizing Information, Coil:Cooling:Water, 1 ZONE VAV 6 CLG COIL, Design Size Design Coil Load [W], 683909.35269
 Component Sizing Information, Coil:Cooling:Water, 1 ZONE VAV 6 CLG COIL, Design Size Design Water Flow Rate [m3/s], 2.90375E-002
 Component Sizing Information, Coil:Cooling:Water, 1 ZONE VAV 6 CLG COIL, Design Size Design Air Flow Rate [m3/s], 27.82563
Water Cooling Coil Capacity Information,Coil:Cooling:Water,1 ZONE VAV 6 CLG COIL,744752.80,498919.94,245832.86,0.67,79683.47,808.19
 Component Sizing Information, Coil:Heating:Water, 1 ZONE VAV 6 MAIN HTG COIL, Design Size Rated Capacity [W], 286333.94507
 Component Sizing Information, Coil:Heating:Water, 1 ZONE VAV 6 MAIN HTG COIL, Design Size Maximum Water Flow Rate [m3/s], 6.26294E-003
 Component Sizing Information, Coil:Heating:Water, 1 ZONE VAV 6 MAIN HTG COIL, Design Size U-Factor Times Area Value [W/K], 3761.97033
Water Heating Coil Capacity Information,Coil:Heating:Water,1 ZONE VAV 6 MAIN HTG COIL,191161.10
 Component Sizing Information, Fan:VariableVolume, 1 ZONE VAV 6 FAN, Design Size Maximum Flow Rate [m3/s], 27.82563
 Component Sizing Information, Controller:WaterCoil, 1 ZONE VAV 6 CLG COIL CONTROLLER, Maximum Actuated Flow [m3/s], 2.90375E-002
 Component Sizing Information, Controller:WaterCoil, 1 ZONE VAV 6 CLG COIL CONTROLLER, Controller Convergence Tolerance, 1.63992E-005
 Component Sizing Information, Controller:WaterCoil, 1 ZONE VAV 6 MAIN HTG COIL CONTROLLER, Maximum Actuated Flow [m3/s], 6.26294E-003
 Component Sizing Information, Controller:OutdoorAir, 1 ZONE VAV 7 OA CONTROLLER, Maximum Outdoor Air Flow Rate [m3/s], 13.22165
 Component Sizing Information, Controller:OutdoorAir, 1 ZONE VAV 7 OA CONTROLLER, Minimum Outdoor Air Flow Rate [m3/s], 1.80745
 Component Sizing Information, Coil:Cooling:Water, 1 ZONE VAV 7 CLG COIL, Design Size Design Inlet Air Temperature [C], 22.82029
 Component Sizing Information, Coil:Cooling:Water, 1 ZONE VAV 7 CLG COIL, Design Size Design Inlet Water Temperature [C], 6.66667
 Component Sizing Information, Coil:Cooling:Water, 1 ZONE VAV 7 CLG COIL, Design Size Design Outlet Air Temperature [C], 10.86216
 Component Sizing Information, Coil:Cooling:Water, 1 ZONE VAV 7 CLG COIL, Design Size Design Inlet Air Humidity Ratio [kgWater/kgDryAir], 9.47488E-003
 Component Sizing Information, Coil:Cooling:Water, 1 ZONE VAV 7 CLG COIL, Design Size Design Outlet Air Humidity Ratio [kgWater/kgDryAir], 8.50000E-003
 Component Sizing Information, Coil:Cooling:Water, 1 ZONE VAV 7 CLG COIL, Design Size Design Coil Load [W], 227920.30421
 Component Sizing Information, Coil:Cooling:Water, 1 ZONE VAV 7 CLG COIL, Design Size Design Water Flow Rate [m3/s], 9.67706E-003
 Component Sizing Information, Coil:Cooling:Water, 1 ZONE VAV 7 CLG COIL, Design Size Design Air Flow Rate [m3/s], 13.22165
Water Cooling Coil Capacity Information,Coil:Cooling:Water,1 ZONE VAV 7 CLG COIL,304837.32,214907.64,89929.68,0.70,33153.94,336.27
 Component Sizing Information, Coil:Heating:Water, 1 ZONE VAV 7 MAIN HTG COIL, Design Size Rated Capacity [W], 47953.51515
 Component Sizing Information, Coil:Heating:Water, 1 ZONE VAV 7 MAIN HTG COIL, Design Size Maximum Water Flow Rate [m3/s], 1.04888E-003
 Component Sizing Information, Coil:Heating:Water, 1 ZONE VAV 7 MAIN HTG COIL, Design Size U-Factor Times Area Value [W/K], 724.59836
Water Heating Coil Capacity Information,Coil:Heating:Water,1 ZONE VAV 7 MAIN HTG COIL,39529.67
 Component Sizing Information, Fan:VariableVolume, 1 ZONE VAV 7 FAN, Design Size Maximum Flow Rate [m3/s], 13.22165
 Component Sizing Information, Controller:WaterCoil, 1 ZONE VAV 7 CLG COIL CONTROLLER, Maximum Actuated Flow [m3/s], 9.67706E-003
 Component Sizing Information, Controller:WaterCoil, 1 ZONE VAV 7 CLG COIL CONTROLLER, Controller Convergence Tolerance, 4.92082E-005
 Component Sizing Information, Controller:WaterCoil, 1 ZONE VAV 7 MAIN HTG COIL CONTROLLER, Maximum Actuated Flow [m3/s], 1.04888E-003
 Component Sizing Information, Controller:OutdoorAir, 1 ZONE VAV 8 OA CONTROLLER, Maximum Outdoor Air Flow Rate [m3/s], 17.89833
 Component Sizing Information, Controller:OutdoorAir, 1 ZONE VAV 8 OA CONTROLLER, Minimum Outdoor Air Flow Rate [m3/s], 5.34869
 Component Sizing Information, Coil:Cooling:Water, 1 ZONE VAV 8 CLG COIL, Design Size Design Inlet Air Temperature [C], 24.68610
 Component Sizing Information, Coil:Cooling:Water, 1 ZONE VAV 8 CLG COIL, Design Size Design Inlet Water Temperature [C], 6.66667
 Component Sizing Information, Coil:Cooling:Water, 1 ZONE VAV 8 CLG COIL, Design Size Design Outlet Air Temperature [C], 10.87816
 Component Sizing Information, Coil:Cooling:Water, 1 ZONE VAV 8 CLG COIL, Design Size Design Inlet Air Humidity Ratio [kgWater/kgDryAir], 1.05523E-002
 Component Sizing Information, Coil:Cooling:Water, 1 ZONE VAV 8 CLG COIL, Design Size Design Outlet Air Humidity Ratio [kgWater/kgDryAir], 8.50000E-003
 Component Sizing Information, Coil:Cooling:Water, 1 ZONE VAV 8 CLG COIL, Design Size Design Coil Load [W], 405936.82575
 Component Sizing Information, Coil:Cooling:Water, 1 ZONE VAV 8 CLG COIL, Design Size Design Water Flow Rate [m3/s], 1.72353E-002
 Component Sizing Information, Coil:Cooling:Water, 1 ZONE VAV 8 CLG COIL, Design Size Design Air Flow Rate [m3/s], 17.89833
Water Cooling Coil Capacity Information,Coil:Cooling:Water,1 ZONE VAV 8 CLG COIL,464417.06,314255.45,150161.60,0.68,49696.93,504.05
 Component Sizing Information, Coil:Heating:Water, 1 ZONE VAV 8 MAIN HTG COIL, Design Size Rated Capacity [W], 183330.06634
 Component Sizing Information, Coil:Heating:Water, 1 ZONE VAV 8 MAIN HTG COIL, Design Size Maximum Water Flow Rate [m3/s], 4.00995E-003
 Component Sizing Information, Coil:Heating:Water, 1 ZONE VAV 8 MAIN HTG COIL, Design Size U-Factor Times Area Value [W/K], 2410.74208
Water Heating Coil Capacity Information,Coil:Heating:Water,1 ZONE VAV 8 MAIN HTG COIL,122559.76
 Component Sizing Information, Fan:VariableVolume, 1 ZONE VAV 8 FAN, Design Size Maximum Flow Rate [m3/s], 17.89833
 Component Sizing Information, Controller:WaterCoil, 1 ZONE VAV 8 CLG COIL CONTROLLER, Maximum Actuated Flow [m3/s], 1.72353E-002
 Component Sizing Information, Controller:WaterCoil, 1 ZONE VAV 8 CLG COIL CONTROLLER, Controller Convergence Tolerance, 2.76288E-005
 Component Sizing Information, Controller:WaterCoil, 1 ZONE VAV 8 MAIN HTG COIL CONTROLLER, Maximum Actuated Flow [m3/s], 4.00995E-003
 Component Sizing Information, Controller:OutdoorAir, 1 ZONE VAV 9 OA CONTROLLER, Maximum Outdoor Air Flow Rate [m3/s], 9.35520
 Component Sizing Information, Controller:OutdoorAir, 1 ZONE VAV 9 OA CONTROLLER, Minimum Outdoor Air Flow Rate [m3/s], 0.95094
 Component Sizing Information, Coil:Cooling:Water, 1 ZONE VAV 9 CLG COIL, Design Size Design Inlet Air Temperature [C], 22.66111
 Component Sizing Information, Coil:Cooling:Water, 1 ZONE VAV 9 CLG COIL, Design Size Design Inlet Water Temperature [C], 6.66667
 Component Sizing Information, Coil:Cooling:Water, 1 ZONE VAV 9 CLG COIL, Design Size Design Outlet Air Temperature [C], 10.59327
 Component Sizing Information, Coil:Cooling:Water, 1 ZONE VAV 9 CLG COIL, Design Size Design Inlet Air Humidity Ratio [kgWater/kgDryAir], 9.28362E-003
 Component Sizing Information, Coil:Cooling:Water, 1 ZONE VAV 9 CLG COIL, Design Size Design Outlet Air Humidity Ratio [kgWater/kgDryAir], 8.50000E-003
 Component Sizing Information, Coil:Cooling:Water, 1 ZONE VAV 9 CLG COIL, Design Size Design Coil Load [W], 157153.74406
 Component Sizing Information, Coil:Cooling:Water, 1 ZONE VAV 9 CLG COIL, Design Size Design Water Flow Rate [m3/s], 6.67244E-003
 Component Sizing Information, Coil:Cooling:Water, 1 ZONE VAV 9 CLG COIL, Design Size Design Air Flow Rate [m3/s], 9.35520
Water Cooling Coil Capacity Information,Coil:Cooling:Water,1 ZONE VAV 9 CLG COIL,215222.35,152096.22,63126.13,0.71,23884.23,242.25
 Component Sizing Information, Coil:Heating:Water, 1 ZONE VAV 9 MAIN HTG COIL, Design Size Rated Capacity [W], 18668.97219
 Component Sizing Information, Coil:Heating:Water, 1 ZONE VAV 9 MAIN HTG COIL, Design Size Maximum Water Flow Rate [m3/s], 4.08343E-004
 Component Sizing Information, Coil:Heating:Water, 1 ZONE VAV 9 MAIN HTG COIL, Design Size U-Factor Times Area Value [W/K], 286.45310
Water Heating Coil Capacity Information,Coil:Heating:Water,1 ZONE VAV 9 MAIN HTG COIL,16333.88
 Component Sizing Information, Fan:VariableVolume, 1 ZONE VAV 9 FAN, Design Size Maximum Flow Rate [m3/s], 9.35520
